
  CDK    9/20/05,18:34

  4  3  0  0  0  0  0  0  0  0999 V2000
    0.0000    0.0000    0.0000 C   0  0  0  0  0  0  0  0  0  0  0  0
    0.0000    0.0000    0.0000 C   0  0  0  0  0  0  0  0  0  0  0  0
    0.0000    0.0000    0.0000 C   0  0  0  0  0  0  0  0  0  0  0  0
    0.0000    0.0000    0.0000 O   0  0  0  0  0  0  0  0  0  0  0  0
  2  1  1  0  0  0  0 
  3  2  1  0  0  0  0 
  4  2  2  0  0  0  0 
M  END
> <SMILES>
CC(C)=O

> <toxTree.tree.cramer.CramerTreeResult>
1Y

> <FORMULA>
C3H6O

> <NAME>
ACETONE

> <CAS>
67-64-1

> <toxTree.tree.cramer.CramerRules>
Low (Class I)

$$$$

  CDK    9/20/05,18:34

 10 11  0  0  0  0  0  0  0  0999 V2000
    0.0000    0.0000    0.0000 N   0  0  0  0  0  0  0  0  0  0  0  0
    0.0000    0.0000    0.0000 C   0  0  0  0  0  0  0  0  0  0  0  0
    0.0000    0.0000    0.0000 C   0  0  0  0  0  0  0  0  0  0  0  0
    0.0000    0.0000    0.0000 N   0  0  0  0  0  0  0  0  0  0  0  0
    0.0000    0.0000    0.0000 C   0  0  0  0  0  0  0  0  0  0  0  0
    0.0000    0.0000    0.0000 N   0  0  0  0  0  0  0  0  0  0  0  0
    0.0000    0.0000    0.0000 C   0  0  0  0  0  0  0  0  0  0  0  0
    0.0000    0.0000    0.0000 N   0  0  0  0  0  0  0  0  0  0  0  0
    0.0000    0.0000    0.0000 C   0  0  0  0  0  0  0  0  0  0  0  0
    0.0000    0.0000    0.0000 N   0  0  0  0  0  0  0  0  0  0  0  0
  2  1  1  0  0  0  0 
  3  2  2  0  0  0  0 
  4  3  1  0  0  0  0 
  5  4  2  0  0  0  0 
  6  5  1  0  0  0  0 
  7  6  2  0  0  0  0 
  7  3  1  0  0  0  0 
  8  7  1  0  0  0  0 
  9  8  2  0  0  0  0 
 10  9  1  0  0  0  0 
 10  2  1  0  0  0  0 
M  END
> <SMILES>
NC1=C2N=CN=C2N=CN1

> <toxTree.tree.cramer.CramerTreeResult>
1Y

> <FORMULA>
C5H5N5

> <NAME>
ADENINE

> <CAS>
73-24-5

> <toxTree.tree.cramer.CramerRules>
Low (Class I)

$$$$

  CDK    9/20/05,18:34

 19 21  0  0  0  0  0  0  0  0999 V2000
    0.0000    0.0000    0.0000 N   0  0  0  0  0  0  0  0  0  0  0  0
    0.0000    0.0000    0.0000 C   0  0  0  0  0  0  0  0  0  0  0  0
    0.0000    0.0000    0.0000 N   0  0  0  0  0  0  0  0  0  0  0  0
    0.0000    0.0000    0.0000 C   0  0  0  0  0  0  0  0  0  0  0  0
    0.0000    0.0000    0.0000 N   0  0  0  0  0  0  0  0  0  0  0  0
    0.0000    0.0000    0.0000 C   0  0  0  0  0  0  0  0  0  0  0  0
    0.0000    0.0000    0.0000 C   0  0  0  0  0  0  0  0  0  0  0  0
    0.0000    0.0000    0.0000 N   0  0  0  0  0  0  0  0  0  0  0  0
    0.0000    0.0000    0.0000 C   0  0  0  0  0  0  0  0  0  0  0  0
    0.0000    0.0000    0.0000 N   0  0  0  0  0  0  0  0  0  0  0  0
    0.0000    0.0000    0.0000 C   0  0  0  0  0  0  0  0  0  0  0  0
    0.0000    0.0000    0.0000 O   0  0  0  0  0  0  0  0  0  0  0  0
    0.0000    0.0000    0.0000 C   0  0  0  0  0  0  0  0  0  0  0  0
    0.0000    0.0000    0.0000 C   0  0  0  0  0  0  0  0  0  0  0  0
    0.0000    0.0000    0.0000 O   0  0  0  0  0  0  0  0  0  0  0  0
    0.0000    0.0000    0.0000 C   0  0  0  0  0  0  0  0  0  0  0  0
    0.0000    0.0000    0.0000 O   0  0  0  0  0  0  0  0  0  0  0  0
    0.0000    0.0000    0.0000 C   0  0  0  0  0  0  0  0  0  0  0  0
    0.0000    0.0000    0.0000 O   0  0  0  0  0  0  0  0  0  0  0  0
  2  1  1  0  0  0  0 
  3  2  2  0  0  0  0 
  4  3  1  0  0  0  0 
  5  4  2  0  0  0  0 
  6  5  1  0  0  0  0 
  7  6  2  0  0  0  0 
  7  2  1  0  0  0  0 
  8  7  1  0  0  0  0 
  9  8  2  0  0  0  0 
 10  9  1  0  0  0  0 
 10  6  1  0  0  0  0 
 11 10  1  0  0  0  0 
 12 11  1  0  0  0  0 
 13 12  1  0  0  0  0 
 14 13  1  0  0  0  0 
 15 14  1  0  0  0  0 
 16 13  1  0  0  0  0 
 17 16  1  0  0  0  0 
 18 16  1  0  0  0  0 
 18 11  1  0  0  0  0 
 19 18  1  0  0  0  0 
M  END
> <SMILES>
NC1=NC=NC2=C1N=CN2[C@@H]3O[C@H](CO)[C@@H](O)[C@H]3O

> <toxTree.tree.cramer.CramerTreeResult>
1Y

> <FORMULA>
C10H13N5O4

> <NAME>
ADENOSINE

> <CAS>
58-61-7

> <toxTree.tree.cramer.CramerRules>
Low (Class I)

$$$$

  CDK    9/20/05,18:34

 27 29  0  0  0  0  0  0  0  0999 V2000
    0.0000    0.0000    0.0000 N   0  0  0  0  0  0  0  0  0  0  0  0
    0.0000    0.0000    0.0000 C   0  0  0  0  0  0  0  0  0  0  0  0
    0.0000    0.0000    0.0000 C   0  0  0  0  0  0  0  0  0  0  0  0
    0.0000    0.0000    0.0000 N   0  0  0  0  0  0  0  0  0  0  0  0
    0.0000    0.0000    0.0000 C   0  0  0  0  0  0  0  0  0  0  0  0
    0.0000    0.0000    0.0000 N   0  0  0  0  0  0  0  0  0  0  0  0
    0.0000    0.0000    0.0000 C   0  0  0  0  0  0  0  0  0  0  0  0
    0.0000    0.0000    0.0000 N   0  0  0  0  0  0  0  0  0  0  0  0
    0.0000    0.0000    0.0000 C   0  0  0  0  0  0  0  0  0  0  0  0
    0.0000    0.0000    0.0000 N   0  0  0  0  0  0  0  0  0  0  0  0
    0.0000    0.0000    0.0000 C   0  0  0  0  0  0  0  0  0  0  0  0
    0.0000    0.0000    0.0000 O   0  0  0  0  0  0  0  0  0  0  0  0
    0.0000    0.0000    0.0000 C   0  0  0  0  0  0  0  0  0  0  0  0
    0.0000    0.0000    0.0000 C   0  0  0  0  0  0  0  0  0  0  0  0
    0.0000    0.0000    0.0000 O   0  0  0  0  0  0  0  0  0  0  0  0
    0.0000    0.0000    0.0000 P   0  0  0  0  0  0  0  0  0  0  0  0
    0.0000    0.0000    0.0000 O   0  0  0  0  0  0  0  0  0  0  0  0
    0.0000    0.0000    0.0000 O   0  0  0  0  0  0  0  0  0  0  0  0
    0.0000    0.0000    0.0000 O   0  0  0  0  0  0  0  0  0  0  0  0
    0.0000    0.0000    0.0000 P   0  0  0  0  0  0  0  0  0  0  0  0
    0.0000    0.0000    0.0000 O   0  0  0  0  0  0  0  0  0  0  0  0
    0.0000    0.0000    0.0000 O   0  0  0  0  0  0  0  0  0  0  0  0
    0.0000    0.0000    0.0000 O   0  0  0  0  0  0  0  0  0  0  0  0
    0.0000    0.0000    0.0000 C   0  0  0  0  0  0  0  0  0  0  0  0
    0.0000    0.0000    0.0000 O   0  0  0  0  0  0  0  0  0  0  0  0
    0.0000    0.0000    0.0000 C   0  0  0  0  0  0  0  0  0  0  0  0
    0.0000    0.0000    0.0000 O   0  0  0  0  0  0  0  0  0  0  0  0
  2  1  1  0  0  0  0 
  3  2  2  0  0  0  0 
  4  3  1  0  0  0  0 
  5  4  2  0  0  0  0 
  6  5  1  0  0  0  0 
  7  6  1  0  0  0  0 
  7  3  1  0  0  0  0 
  8  7  2  0  0  0  0 
  9  8  1  0  0  0  0 
 10  9  2  0  0  0  0 
 10  2  1  0  0  0  0 
 11  6  1  0  0  0  0 
 12 11  1  0  0  0  0 
 13 12  1  0  0  0  0 
 14 13  1  0  0  0  0 
 15 14  1  0  0  0  0 
 16 15  1  0  0  0  0 
 17 16  1  0  0  0  0 
 18 16  2  0  0  0  0 
 19 16  1  0  0  0  0 
 20 19  1  0  0  0  0 
 21 20  1  0  0  0  0 
 22 20  1  0  0  0  0 
 23 20  2  0  0  0  0 
 24 13  1  0  0  0  0 
 25 24  1  0  0  0  0 
 26 24  1  0  0  0  0 
 26 11  1  0  0  0  0 
 27 26  1  0  0  0  0 
M  END
> <SMILES>
NC1=C2N=CN(C2=NC=N1)[C@@H]3O[C@H](COP(O)(=O)OP(O)(O)=O)[C@@H](O)[C@H]3O

> <toxTree.tree.cramer.CramerTreeResult>
1Y

> <FORMULA>
C10H15N5O10P2

> <NAME>
ADENOSINE DIPHOSPHATE

> <CAS>
58-64-0

> <toxTree.tree.cramer.CramerRules>
Low (Class I)

$$$$

  CDK    9/20/05,18:34

  6  5  0  0  0  0  0  0  0  0999 V2000
    0.0000    0.0000    0.0000 C   0  0  0  0  0  0  0  0  0  0  0  0
    0.0000    0.0000    0.0000 C   0  0  0  0  0  0  0  0  0  0  0  0
    0.0000    0.0000    0.0000 N   0  0  0  0  0  0  0  0  0  0  0  0
    0.0000    0.0000    0.0000 C   0  0  0  0  0  0  0  0  0  0  0  0
    0.0000    0.0000    0.0000 O   0  0  0  0  0  0  0  0  0  0  0  0
    0.0000    0.0000    0.0000 O   0  0  0  0  0  0  0  0  0  0  0  0
  2  1  1  0  0  0  0 
  3  2  1  0  0  0  0 
  4  2  1  0  0  0  0 
  5  4  1  0  0  0  0 
  6  4  2  0  0  0  0 
M  END
> <SMILES>
C[C@H](N)C(O)=O

> <toxTree.tree.cramer.CramerTreeResult>
1Y

> <FORMULA>
C3H7NO2

> <NAME>
ALANINE

> <CAS>
56-41-7

> <toxTree.tree.cramer.CramerRules>
Low (Class I)

$$$$

  CDK    9/20/05,18:34

 12 11  0  0  0  0  0  0  0  0999 V2000
    0.0000    0.0000    0.0000 N   0  0  0  0  0  0  0  0  0  0  0  0
    0.0000    0.0000    0.0000 C   0  0  0  0  0  0  0  0  0  0  0  0
    0.0000    0.0000    0.0000 C   0  0  0  0  0  0  0  0  0  0  0  0
    0.0000    0.0000    0.0000 C   0  0  0  0  0  0  0  0  0  0  0  0
    0.0000    0.0000    0.0000 C   0  0  0  0  0  0  0  0  0  0  0  0
    0.0000    0.0000    0.0000 N   0  0  0  0  0  0  0  0  0  0  0  0
    0.0000    0.0000    0.0000 C   0  0  0  0  0  0  0  0  0  0  0  0
    0.0000    0.0000    0.0000 N   0  0  0  0  0  0  0  0  0  0  0  0
    0.0000    0.0000    0.0000 N   0  0  0  0  0  0  0  0  0  0  0  0
    0.0000    0.0000    0.0000 C   0  0  0  0  0  0  0  0  0  0  0  0
    0.0000    0.0000    0.0000 O   0  0  0  0  0  0  0  0  0  0  0  0
    0.0000    0.0000    0.0000 O   0  0  0  0  0  0  0  0  0  0  0  0
  2  1  1  0  0  0  0 
  3  2  1  0  0  0  0 
  4  3  1  0  0  0  0 
  5  4  1  0  0  0  0 
  6  5  1  0  0  0  0 
  7  6  1  0  0  0  0 
  8  7  1  0  0  0  0 
  9  7  2  0  0  0  0 
 10  2  1  0  0  0  0 
 11 10  1  0  0  0  0 
 12 10  2  0  0  0  0 
M  END
> <SMILES>
N[C@@H](CCCNC(N)=N)C(O)=O

> <toxTree.tree.cramer.CramerTreeResult>
1Y

> <FORMULA>
C6H14N4O2

> <NAME>
L-ARGININE

> <CAS>
74-79-3

> <toxTree.tree.cramer.CramerRules>
Low (Class I)

$$$$

  CDK    9/20/05,18:35

 12 12  0  0  0  0  0  0  0  0999 V2000
    0.0000    0.0000    0.0000 O   0  0  0  0  0  0  0  0  0  0  0  0
    0.0000    0.0000    0.0000 C   0  0  0  0  0  0  0  0  0  0  0  0
    0.0000    0.0000    0.0000 C   0  0  0  0  0  0  0  0  0  0  0  0
    0.0000    0.0000    0.0000 O   0  0  0  0  0  0  0  0  0  0  0  0
    0.0000    0.0000    0.0000 C   0  0  0  0  0  0  0  0  0  0  0  0
    0.0000    0.0000    0.0000 O   0  0  0  0  0  0  0  0  0  0  0  0
    0.0000    0.0000    0.0000 C   0  0  0  0  0  0  0  0  0  0  0  0
    0.0000    0.0000    0.0000 O   0  0  0  0  0  0  0  0  0  0  0  0
    0.0000    0.0000    0.0000 C   0  0  0  0  0  0  0  0  0  0  0  0
    0.0000    0.0000    0.0000 O   0  0  0  0  0  0  0  0  0  0  0  0
    0.0000    0.0000    0.0000 C   0  0  0  0  0  0  0  0  0  0  0  0
    0.0000    0.0000    0.0000 O   0  0  0  0  0  0  0  0  0  0  0  0
  2  1  1  0  0  0  0 
  3  2  1  0  0  0  0 
  4  3  1  0  0  0  0 
  5  3  1  0  0  0  0 
  6  5  1  0  0  0  0 
  7  6  1  0  0  0  0 
  8  7  2  0  0  0  0 
  9  7  1  0  0  0  0 
 10  9  1  0  0  0  0 
 11  9  2  0  0  0  0 
 11  5  1  0  0  0  0 
 12 11  1  0  0  0  0 
M  END
> <SMILES>
OC[C@H](O)[C@H]1OC(=O)C(O)=C1O

> <toxTree.tree.cramer.CramerTreeResult>
1N,2N,3N,5N,6N,7Y,8N,10N,11N,12N,22Y

> <FORMULA>
C6H8O6

> <NAME>
ASCORBIC ACID

> <CAS>
50-81-7

> <toxTree.tree.cramer.CramerRules>
Intermediate (Class II)

$$$$

  CDK    9/20/05,18:34

  9  8  0  0  0  0  0  0  0  0999 V2000
    0.0000    0.0000    0.0000 N   0  0  0  0  0  0  0  0  0  0  0  0
    0.0000    0.0000    0.0000 C   0  0  0  0  0  0  0  0  0  0  0  0
    0.0000    0.0000    0.0000 C   0  0  0  0  0  0  0  0  0  0  0  0
    0.0000    0.0000    0.0000 C   0  0  0  0  0  0  0  0  0  0  0  0
    0.0000    0.0000    0.0000 N   0  0  0  0  0  0  0  0  0  0  0  0
    0.0000    0.0000    0.0000 O   0  0  0  0  0  0  0  0  0  0  0  0
    0.0000    0.0000    0.0000 C   0  0  0  0  0  0  0  0  0  0  0  0
    0.0000    0.0000    0.0000 O   0  0  0  0  0  0  0  0  0  0  0  0
    0.0000    0.0000    0.0000 O   0  0  0  0  0  0  0  0  0  0  0  0
  2  1  1  0  0  0  0 
  3  2  1  0  0  0  0 
  4  3  1  0  0  0  0 
  5  4  1  0  0  0  0 
  6  4  2  0  0  0  0 
  7  2  1  0  0  0  0 
  8  7  1  0  0  0  0 
  9  7  2  0  0  0  0 
M  END
> <SMILES>
N[C@@H](CC(N)=O)C(O)=O

> <toxTree.tree.cramer.CramerTreeResult>
1Y

> <FORMULA>
C4H8N2O3

> <NAME>
ASPARAGINE

> <CAS>
70-47-3

> <toxTree.tree.cramer.CramerRules>
Low (Class I)

$$$$

  CDK    9/20/05,18:34

  9  8  0  0  0  0  0  0  0  0999 V2000
    0.0000    0.0000    0.0000 N   0  0  0  0  0  0  0  0  0  0  0  0
    0.0000    0.0000    0.0000 C   0  0  0  0  0  0  0  0  0  0  0  0
    0.0000    0.0000    0.0000 C   0  0  0  0  0  0  0  0  0  0  0  0
    0.0000    0.0000    0.0000 C   0  0  0  0  0  0  0  0  0  0  0  0
    0.0000    0.0000    0.0000 O   0  0  0  0  0  0  0  0  0  0  0  0
    0.0000    0.0000    0.0000 O   0  0  0  0  0  0  0  0  0  0  0  0
    0.0000    0.0000    0.0000 C   0  0  0  0  0  0  0  0  0  0  0  0
    0.0000    0.0000    0.0000 O   0  0  0  0  0  0  0  0  0  0  0  0
    0.0000    0.0000    0.0000 O   0  0  0  0  0  0  0  0  0  0  0  0
  2  1  1  0  0  0  0 
  3  2  1  0  0  0  0 
  4  3  1  0  0  0  0 
  5  4  1  0  0  0  0 
  6  4  2  0  0  0  0 
  7  2  1  0  0  0  0 
  8  7  1  0  0  0  0 
  9  7  2  0  0  0  0 
M  END
> <SMILES>
N[C@@H](CC(O)=O)C(O)=O

> <toxTree.tree.cramer.CramerTreeResult>
1Y

> <FORMULA>
C4H7NO4

> <NAME>
L-ASPARTIC ACID

> <CAS>
56-84-8

> <toxTree.tree.cramer.CramerRules>
Low (Class I)

$$$$

  CDK    9/20/05,18:34

 31 33  0  0  0  0  0  0  0  0999 V2000
    0.0000    0.0000    0.0000 N   0  0  0  0  0  0  0  0  0  0  0  0
    0.0000    0.0000    0.0000 C   0  0  0  0  0  0  0  0  0  0  0  0
    0.0000    0.0000    0.0000 C   0  0  0  0  0  0  0  0  0  0  0  0
    0.0000    0.0000    0.0000 N   0  0  0  0  0  0  0  0  0  0  0  0
    0.0000    0.0000    0.0000 C   0  0  0  0  0  0  0  0  0  0  0  0
    0.0000    0.0000    0.0000 N   0  0  0  0  0  0  0  0  0  0  0  0
    0.0000    0.0000    0.0000 C   0  0  0  0  0  0  0  0  0  0  0  0
    0.0000    0.0000    0.0000 N   0  0  0  0  0  0  0  0  0  0  0  0
    0.0000    0.0000    0.0000 C   0  0  0  0  0  0  0  0  0  0  0  0
    0.0000    0.0000    0.0000 N   0  0  0  0  0  0  0  0  0  0  0  0
    0.0000    0.0000    0.0000 C   0  0  0  0  0  0  0  0  0  0  0  0
    0.0000    0.0000    0.0000 O   0  0  0  0  0  0  0  0  0  0  0  0
    0.0000    0.0000    0.0000 C   0  0  0  0  0  0  0  0  0  0  0  0
    0.0000    0.0000    0.0000 C   0  0  0  0  0  0  0  0  0  0  0  0
    0.0000    0.0000    0.0000 O   0  0  0  0  0  0  0  0  0  0  0  0
    0.0000    0.0000    0.0000 P   0  0  0  0  0  0  0  0  0  0  0  0
    0.0000    0.0000    0.0000 O   0  0  0  0  0  0  0  0  0  0  0  0
    0.0000    0.0000    0.0000 O   0  0  0  0  0  0  0  0  0  0  0  0
    0.0000    0.0000    0.0000 O   0  0  0  0  0  0  0  0  0  0  0  0
    0.0000    0.0000    0.0000 P   0  0  0  0  0  0  0  0  0  0  0  0
    0.0000    0.0000    0.0000 O   0  0  0  0  0  0  0  0  0  0  0  0
    0.0000    0.0000    0.0000 O   0  0  0  0  0  0  0  0  0  0  0  0
    0.0000    0.0000    0.0000 O   0  0  0  0  0  0  0  0  0  0  0  0
    0.0000    0.0000    0.0000 P   0  0  0  0  0  0  0  0  0  0  0  0
    0.0000    0.0000    0.0000 O   0  0  0  0  0  0  0  0  0  0  0  0
    0.0000    0.0000    0.0000 O   0  0  0  0  0  0  0  0  0  0  0  0
    0.0000    0.0000    0.0000 O   0  0  0  0  0  0  0  0  0  0  0  0
    0.0000    0.0000    0.0000 C   0  0  0  0  0  0  0  0  0  0  0  0
    0.0000    0.0000    0.0000 O   0  0  0  0  0  0  0  0  0  0  0  0
    0.0000    0.0000    0.0000 C   0  0  0  0  0  0  0  0  0  0  0  0
    0.0000    0.0000    0.0000 O   0  0  0  0  0  0  0  0  0  0  0  0
  2  1  1  0  0  0  0 
  3  2  2  0  0  0  0 
  4  3  1  0  0  0  0 
  5  4  2  0  0  0  0 
  6  5  1  0  0  0  0 
  7  6  1  0  0  0  0 
  7  3  1  0  0  0  0 
  8  7  2  0  0  0  0 
  9  8  1  0  0  0  0 
 10  9  2  0  0  0  0 
 10  2  1  0  0  0  0 
 11  6  1  0  0  0  0 
 12 11  1  0  0  0  0 
 13 12  1  0  0  0  0 
 14 13  1  0  0  0  0 
 15 14  1  0  0  0  0 
 16 15  1  0  0  0  0 
 17 16  1  0  0  0  0 
 18 16  2  0  0  0  0 
 19 16  1  0  0  0  0 
 20 19  1  0  0  0  0 
 21 20  1  0  0  0  0 
 22 20  2  0  0  0  0 
 23 20  1  0  0  0  0 
 24 23  1  0  0  0  0 
 25 24  1  0  0  0  0 
 26 24  1  0  0  0  0 
 27 24  2  0  0  0  0 
 28 13  1  0  0  0  0 
 29 28  1  0  0  0  0 
 30 28  1  0  0  0  0 
 30 11  1  0  0  0  0 
 31 30  1  0  0  0  0 
M  END
> <SMILES>
NC1=C2N=CN(C2=NC=N1)[C@@H]3O[C@H](COP(O)(=O)OP(O)(=O)OP(O)(O)=O)[C@@H](O)[C@H]3O

> <toxTree.tree.cramer.CramerTreeResult>
1Y

> <FORMULA>
C10H16N5O13P3

> <NAME>
ADENOSINE TRIPHOSPHATE

> <CAS>
56-65-5

> <toxTree.tree.cramer.CramerRules>
Low (Class I)

$$$$

  CDK    9/20/05,18:34

 32 35  0  0  0  0  0  0  0  0999 V2000
    0.0000    0.0000    0.0000 H   0  0  0  0  0  0  0  0  0  0  0  0
    0.0000    0.0000    0.0000 C   0  0  0  0  0  0  0  0  0  0  0  0
    0.0000    0.0000    0.0000 C   0  0  0  0  0  0  0  0  0  0  0  0
    0.0000    0.0000    0.0000 C   0  0  0  0  0  0  0  0  0  0  0  0
    0.0000    0.0000    0.0000 C   0  0  0  0  0  0  0  0  0  0  0  0
    0.0000    0.0000    0.0000 H   0  0  0  0  0  0  0  0  0  0  0  0
    0.0000    0.0000    0.0000 C   0  0  0  0  0  0  0  0  0  0  0  0
    0.0000    0.0000    0.0000 C   0  0  0  0  0  0  0  0  0  0  0  0
    0.0000    0.0000    0.0000 C   0  0  0  0  0  0  0  0  0  0  0  0
    0.0000    0.0000    0.0000 C   0  0  0  0  0  0  0  0  0  0  0  0
    0.0000    0.0000    0.0000 C   0  0  0  0  0  0  0  0  0  0  0  0
    0.0000    0.0000    0.0000 H   0  0  0  0  0  0  0  0  0  0  0  0
    0.0000    0.0000    0.0000 C   0  0  0  0  0  0  0  0  0  0  0  0
    0.0000    0.0000    0.0000 C   0  0  0  0  0  0  0  0  0  0  0  0
    0.0000    0.0000    0.0000 C   0  0  0  0  0  0  0  0  0  0  0  0
    0.0000    0.0000    0.0000 C   0  0  0  0  0  0  0  0  0  0  0  0
    0.0000    0.0000    0.0000 C   0  0  0  0  0  0  0  0  0  0  0  0
    0.0000    0.0000    0.0000 O   0  0  0  0  0  0  0  0  0  0  0  0
    0.0000    0.0000    0.0000 C   0  0  0  0  0  0  0  0  0  0  0  0
    0.0000    0.0000    0.0000 C   0  0  0  0  0  0  0  0  0  0  0  0
    0.0000    0.0000    0.0000 C   0  0  0  0  0  0  0  0  0  0  0  0
    0.0000    0.0000    0.0000 C   0  0  0  0  0  0  0  0  0  0  0  0
    0.0000    0.0000    0.0000 C   0  0  0  0  0  0  0  0  0  0  0  0
    0.0000    0.0000    0.0000 H   0  0  0  0  0  0  0  0  0  0  0  0
    0.0000    0.0000    0.0000 C   0  0  0  0  0  0  0  0  0  0  0  0
    0.0000    0.0000    0.0000 C   0  0  0  0  0  0  0  0  0  0  0  0
    0.0000    0.0000    0.0000 C   0  0  0  0  0  0  0  0  0  0  0  0
    0.0000    0.0000    0.0000 C   0  0  0  0  0  0  0  0  0  0  0  0
    0.0000    0.0000    0.0000 C   0  0  0  0  0  0  0  0  0  0  0  0
    0.0000    0.0000    0.0000 C   0  0  0  0  0  0  0  0  0  0  0  0
    0.0000    0.0000    0.0000 C   0  0  0  0  0  0  0  0  0  0  0  0
    0.0000    0.0000    0.0000 C   0  0  0  0  0  0  0  0  0  0  0  0
  2  1  1  0  0  0  0 
  3  2  1  0  0  0  0 
  4  3  1  0  0  0  0 
  5  4  1  0  0  0  0 
  6  5  1  0  0  0  0 
  7  5  1  0  0  0  0 
  7  2  1  0  0  0  0 
  8  7  1  0  0  0  0 
  9  7  1  0  0  0  0 
 10  9  1  0  0  0  0 
 11 10  1  0  0  0  0 
 12 11  1  0  0  0  0 
 13 11  1  0  0  0  0 
 14 13  1  0  0  0  0 
 15 13  1  0  0  0  0 
 16 15  1  0  0  0  0 
 17 16  1  0  0  0  0 
 18 17  1  0  0  0  0 
 19 17  1  0  0  0  0 
 20 19  1  0  0  0  0 
 20 13  1  0  0  0  0 
 21 20  2  0  0  0  0 
 22 21  1  0  0  0  0 
 23 22  1  0  0  0  0 
 23  5  1  0  0  0  0 
 23 11  1  0  0  0  0 
 24 23  1  0  0  0  0 
 25  2  1  0  0  0  0 
 26 25  1  0  0  0  0 
 27 25  1  0  0  0  0 
 28 27  1  0  0  0  0 
 29 28  1  0  0  0  0 
 30 29  1  0  0  0  0 
 31 30  1  0  0  0  0 
 32 30  1  0  0  0  0 
M  END
> <SMILES>
[H][C@@]1(CC[C@]2([H])[C@]1(C)CC[C@]3([H])[C@@]4(C)CC[C@H](O)CC4=CC[C@@]23[H])[C@H](C)CCCC(C)C

> <toxTree.tree.cramer.CramerTreeResult>
1Y

> <FORMULA>
C27H46O

> <NAME>
CHOLESTEROL

> <CAS>
57-88-5

> <toxTree.tree.cramer.CramerRules>
Low (Class I)

$$$$

  CDK    9/20/05,18:34

  7  6  0  0  0  0  0  0  0  0999 V2000
    0.0000    0.0000    0.0000 N   0  0  0  0  0  0  0  0  0  0  0  0
    0.0000    0.0000    0.0000 C   0  0  0  0  0  0  0  0  0  0  0  0
    0.0000    0.0000    0.0000 C   0  0  0  0  0  0  0  0  0  0  0  0
    0.0000    0.0000    0.0000 S   0  0  0  0  0  0  0  0  0  0  0  0
    0.0000    0.0000    0.0000 C   0  0  0  0  0  0  0  0  0  0  0  0
    0.0000    0.0000    0.0000 O   0  0  0  0  0  0  0  0  0  0  0  0
    0.0000    0.0000    0.0000 O   0  0  0  0  0  0  0  0  0  0  0  0
  2  1  1  0  0  0  0 
  3  2  1  0  0  0  0 
  4  3  1  0  0  0  0 
  5  2  1  0  0  0  0 
  6  5  1  0  0  0  0 
  7  5  2  0  0  0  0 
M  END
> <SMILES>
N[C@@H](CS)C(O)=O

> <toxTree.tree.cramer.CramerTreeResult>
1Y

> <FORMULA>
C3H7NO2S

> <NAME>
CYSTEINE

> <CAS>
52-90-4

> <toxTree.tree.cramer.CramerRules>
Low (Class I)

$$$$

  CDK    9/20/05,18:34

 17 18  0  0  0  0  0  0  0  0999 V2000
    0.0000    0.0000    0.0000 N   0  0  0  0  0  0  0  0  0  0  0  0
    0.0000    0.0000    0.0000 C   0  0  0  0  0  0  0  0  0  0  0  0
    0.0000    0.0000    0.0000 N   0  0  0  0  0  0  0  0  0  0  0  0
    0.0000    0.0000    0.0000 C   0  0  0  0  0  0  0  0  0  0  0  0
    0.0000    0.0000    0.0000 O   0  0  0  0  0  0  0  0  0  0  0  0
    0.0000    0.0000    0.0000 N   0  0  0  0  0  0  0  0  0  0  0  0
    0.0000    0.0000    0.0000 C   0  0  0  0  0  0  0  0  0  0  0  0
    0.0000    0.0000    0.0000 C   0  0  0  0  0  0  0  0  0  0  0  0
    0.0000    0.0000    0.0000 C   0  0  0  0  0  0  0  0  0  0  0  0
    0.0000    0.0000    0.0000 O   0  0  0  0  0  0  0  0  0  0  0  0
    0.0000    0.0000    0.0000 C   0  0  0  0  0  0  0  0  0  0  0  0
    0.0000    0.0000    0.0000 C   0  0  0  0  0  0  0  0  0  0  0  0
    0.0000    0.0000    0.0000 O   0  0  0  0  0  0  0  0  0  0  0  0
    0.0000    0.0000    0.0000 C   0  0  0  0  0  0  0  0  0  0  0  0
    0.0000    0.0000    0.0000 O   0  0  0  0  0  0  0  0  0  0  0  0
    0.0000    0.0000    0.0000 C   0  0  0  0  0  0  0  0  0  0  0  0
    0.0000    0.0000    0.0000 O   0  0  0  0  0  0  0  0  0  0  0  0
  2  1  1  0  0  0  0 
  3  2  2  0  0  0  0 
  4  3  1  0  0  0  0 
  5  4  2  0  0  0  0 
  6  4  1  0  0  0  0 
  7  6  1  0  0  0  0 
  8  7  2  0  0  0  0 
  8  2  1  0  0  0  0 
  9  6  1  0  0  0  0 
 10  9  1  0  0  0  0 
 11 10  1  0  0  0  0 
 12 11  1  0  0  0  0 
 13 12  1  0  0  0  0 
 14 11  1  0  0  0  0 
 15 14  1  0  0  0  0 
 16 14  1  0  0  0  0 
 16  9  1  0  0  0  0 
 17 16  1  0  0  0  0 
M  END
> <SMILES>
NC1=NC(=O)N(C=C1)[C@@H]2O[C@H](CO)[C@@H](O)[C@H]2O

> <toxTree.tree.cramer.CramerTreeResult>
1Y

> <FORMULA>
C9H13N3O5

> <NAME>
CYTIDINE

> <CAS>
65-46-3

> <toxTree.tree.cramer.CramerRules>
Low (Class I)

$$$$

  CDK    9/20/05,18:34

  8  8  0  0  0  0  0  0  0  0999 V2000
    0.0000    0.0000    0.0000 N   0  0  0  0  0  0  0  0  0  0  0  0
    0.0000    0.0000    0.0000 C   0  0  0  0  0  0  0  0  0  0  0  0
    0.0000    0.0000    0.0000 N   0  0  0  0  0  0  0  0  0  0  0  0
    0.0000    0.0000    0.0000 C   0  0  0  0  0  0  0  0  0  0  0  0
    0.0000    0.0000    0.0000 O   0  0  0  0  0  0  0  0  0  0  0  0
    0.0000    0.0000    0.0000 N   0  0  0  0  0  0  0  0  0  0  0  0
    0.0000    0.0000    0.0000 C   0  0  0  0  0  0  0  0  0  0  0  0
    0.0000    0.0000    0.0000 C   0  0  0  0  0  0  0  0  0  0  0  0
  2  1  1  0  0  0  0 
  3  2  2  0  0  0  0 
  4  3  1  0  0  0  0 
  5  4  2  0  0  0  0 
  6  4  1  0  0  0  0 
  7  6  1  0  0  0  0 
  8  7  2  0  0  0  0 
  8  2  1  0  0  0  0 
M  END
> <SMILES>
NC1=NC(=O)NC=C1

> <toxTree.tree.cramer.CramerTreeResult>
1Y

> <FORMULA>
C4H5N3O

> <NAME>
CYTOSINE

> <CAS>
71-30-7

> <toxTree.tree.cramer.CramerRules>
Low (Class I)

$$$$

  CDK    9/20/05,18:34

 12 12  0  0  0  0  0  0  0  0999 V2000
    0.0000    0.0000    0.0000 O   0  0  0  0  0  0  0  0  0  0  0  0
    0.0000    0.0000    0.0000 C   0  0  0  0  0  0  0  0  0  0  0  0
    0.0000    0.0000    0.0000 C   0  0  0  0  0  0  0  0  0  0  0  0
    0.0000    0.0000    0.0000 O   0  0  0  0  0  0  0  0  0  0  0  0
    0.0000    0.0000    0.0000 C   0  0  0  0  0  0  0  0  0  0  0  0
    0.0000    0.0000    0.0000 O   0  0  0  0  0  0  0  0  0  0  0  0
    0.0000    0.0000    0.0000 C   0  0  0  0  0  0  0  0  0  0  0  0
    0.0000    0.0000    0.0000 O   0  0  0  0  0  0  0  0  0  0  0  0
    0.0000    0.0000    0.0000 C   0  0  0  0  0  0  0  0  0  0  0  0
    0.0000    0.0000    0.0000 O   0  0  0  0  0  0  0  0  0  0  0  0
    0.0000    0.0000    0.0000 C   0  0  0  0  0  0  0  0  0  0  0  0
    0.0000    0.0000    0.0000 O   0  0  0  0  0  0  0  0  0  0  0  0
  2  1  1  0  0  0  0 
  3  2  1  0  0  0  0 
  4  3  1  0  0  0  0 
  5  4  1  0  0  0  0 
  6  5  1  0  0  0  0 
  7  5  1  0  0  0  0 
  8  7  1  0  0  0  0 
  9  7  1  0  0  0  0 
 10  9  1  0  0  0  0 
 11  9  1  0  0  0  0 
 11  3  1  0  0  0  0 
 12 11  1  0  0  0  0 
M  END
> <SMILES>
OC[C@H]1OC(O)[C@H](O)[C@@H](O)[C@@H]1O

> <toxTree.tree.cramer.CramerTreeResult>
1Y

> <FORMULA>
C6H12O6

> <NAME>
D-GLUCOSE

> <CAS>
50-99-7

> <toxTree.tree.cramer.CramerRules>
Low (Class I)

$$$$

  CDK    9/20/05,18:34

 13 12  0  0  0  0  0  0  0  0999 V2000
    0.0000    0.0000    0.0000 O   0  0  0  0  0  0  0  0  0  0  0  0
    0.0000    0.0000    0.0000 C   0  0  0  0  0  0  0  0  0  0  0  0
    0.0000    0.0000    0.0000 O   0  0  0  0  0  0  0  0  0  0  0  0
    0.0000    0.0000    0.0000 C   0  0  0  0  0  0  0  0  0  0  0  0
    0.0000    0.0000    0.0000 O   0  0  0  0  0  0  0  0  0  0  0  0
    0.0000    0.0000    0.0000 C   0  0  0  0  0  0  0  0  0  0  0  0
    0.0000    0.0000    0.0000 O   0  0  0  0  0  0  0  0  0  0  0  0
    0.0000    0.0000    0.0000 C   0  0  0  0  0  0  0  0  0  0  0  0
    0.0000    0.0000    0.0000 O   0  0  0  0  0  0  0  0  0  0  0  0
    0.0000    0.0000    0.0000 C   0  0  0  0  0  0  0  0  0  0  0  0
    0.0000    0.0000    0.0000 O   0  0  0  0  0  0  0  0  0  0  0  0
    0.0000    0.0000    0.0000 C   0  0  0  0  0  0  0  0  0  0  0  0
    0.0000    0.0000    0.0000 O   0  0  0  0  0  0  0  0  0  0  0  0
  2  1  1  0  0  0  0 
  3  2  2  0  0  0  0 
  4  2  1  0  0  0  0 
  5  4  1  0  0  0  0 
  6  4  1  0  0  0  0 
  7  6  1  0  0  0  0 
  8  6  1  0  0  0  0 
  9  8  1  0  0  0  0 
 10  8  1  0  0  0  0 
 11 10  1  0  0  0  0 
 12 10  1  0  0  0  0 
 13 12  2  0  0  0  0 
M  END
> <SMILES>
OC(=O)[C@@H](O)[C@@H](O)[C@H](O)[C@@H](O)C=O

> <toxTree.tree.cramer.CramerTreeResult>
1Y

> <FORMULA>
C6H10O7

> <NAME>
GLUCURONIC ACID

> <CAS>
576-37-4

> <toxTree.tree.cramer.CramerRules>
Low (Class I)

$$$$

  CDK    9/20/05,18:34

 10  9  0  0  0  0  0  0  0  0999 V2000
    0.0000    0.0000    0.0000 N   0  0  0  0  0  0  0  0  0  0  0  0
    0.0000    0.0000    0.0000 C   0  0  0  0  0  0  0  0  0  0  0  0
    0.0000    0.0000    0.0000 C   0  0  0  0  0  0  0  0  0  0  0  0
    0.0000    0.0000    0.0000 C   0  0  0  0  0  0  0  0  0  0  0  0
    0.0000    0.0000    0.0000 C   0  0  0  0  0  0  0  0  0  0  0  0
    0.0000    0.0000    0.0000 O   0  0  0  0  0  0  0  0  0  0  0  0
    0.0000    0.0000    0.0000 O   0  0  0  0  0  0  0  0  0  0  0  0
    0.0000    0.0000    0.0000 C   0  0  0  0  0  0  0  0  0  0  0  0
    0.0000    0.0000    0.0000 O   0  0  0  0  0  0  0  0  0  0  0  0
    0.0000    0.0000    0.0000 O   0  0  0  0  0  0  0  0  0  0  0  0
  2  1  1  0  0  0  0 
  3  2  1  0  0  0  0 
  4  3  1  0  0  0  0 
  5  4  1  0  0  0  0 
  6  5  1  0  0  0  0 
  7  5  2  0  0  0  0 
  8  2  1  0  0  0  0 
  9  8  1  0  0  0  0 
 10  8  2  0  0  0  0 
M  END
> <SMILES>
NC(CCC(O)=O)C(O)=O

> <toxTree.tree.cramer.CramerTreeResult>
1Y

> <FORMULA>
C5H9NO4

> <NAME>
L-GLUTAMIC ACID

> <CAS>
56-86-0

> <toxTree.tree.cramer.CramerRules>
Low (Class I)

$$$$

  CDK    9/20/05,18:34

 10  9  0  0  0  0  0  0  0  0999 V2000
    0.0000    0.0000    0.0000 N   0  0  0  0  0  0  0  0  0  0  0  0
    0.0000    0.0000    0.0000 C   0  0  0  0  0  0  0  0  0  0  0  0
    0.0000    0.0000    0.0000 C   0  0  0  0  0  0  0  0  0  0  0  0
    0.0000    0.0000    0.0000 C   0  0  0  0  0  0  0  0  0  0  0  0
    0.0000    0.0000    0.0000 C   0  0  0  0  0  0  0  0  0  0  0  0
    0.0000    0.0000    0.0000 N   0  0  0  0  0  0  0  0  0  0  0  0
    0.0000    0.0000    0.0000 O   0  0  0  0  0  0  0  0  0  0  0  0
    0.0000    0.0000    0.0000 C   0  0  0  0  0  0  0  0  0  0  0  0
    0.0000    0.0000    0.0000 O   0  0  0  0  0  0  0  0  0  0  0  0
    0.0000    0.0000    0.0000 O   0  0  0  0  0  0  0  0  0  0  0  0
  2  1  1  0  0  0  0 
  3  2  1  0  0  0  0 
  4  3  1  0  0  0  0 
  5  4  1  0  0  0  0 
  6  5  1  0  0  0  0 
  7  5  2  0  0  0  0 
  8  2  1  0  0  0  0 
  9  8  1  0  0  0  0 
 10  8  2  0  0  0  0 
M  END
> <SMILES>
N[C@@H](CCC(N)=O)C(O)=O

> <toxTree.tree.cramer.CramerTreeResult>
1Y

> <FORMULA>
C5H10N2O3

> <NAME>
GLUTAMINE

> <CAS>
56-85-9

> <toxTree.tree.cramer.CramerRules>
Low (Class I)

$$$$

  CDK    9/20/05,18:34

  5  4  0  0  0  0  0  0  0  0999 V2000
    0.0000    0.0000    0.0000 N   0  0  0  0  0  0  0  0  0  0  0  0
    0.0000    0.0000    0.0000 C   0  0  0  0  0  0  0  0  0  0  0  0
    0.0000    0.0000    0.0000 C   0  0  0  0  0  0  0  0  0  0  0  0
    0.0000    0.0000    0.0000 O   0  0  0  0  0  0  0  0  0  0  0  0
    0.0000    0.0000    0.0000 O   0  0  0  0  0  0  0  0  0  0  0  0
  2  1  1  0  0  0  0 
  3  2  1  0  0  0  0 
  4  3  1  0  0  0  0 
  5  3  2  0  0  0  0 
M  END
> <SMILES>
NCC(O)=O

> <toxTree.tree.cramer.CramerTreeResult>
1Y

> <FORMULA>
C2H5NO2

> <NAME>
GLYCINE

> <CAS>
56-40-6

> <toxTree.tree.cramer.CramerRules>
Low (Class I)

$$$$

  CDK    9/20/05,18:34

 11 12  0  0  0  0  0  0  0  0999 V2000
    0.0000    0.0000    0.0000 N   0  0  0  0  0  0  0  0  0  0  0  0
    0.0000    0.0000    0.0000 C   0  0  0  0  0  0  0  0  0  0  0  0
    0.0000    0.0000    0.0000 N   0  0  0  0  0  0  0  0  0  0  0  0
    0.0000    0.0000    0.0000 C   0  0  0  0  0  0  0  0  0  0  0  0
    0.0000    0.0000    0.0000 C   0  0  0  0  0  0  0  0  0  0  0  0
    0.0000    0.0000    0.0000 N   0  0  0  0  0  0  0  0  0  0  0  0
    0.0000    0.0000    0.0000 C   0  0  0  0  0  0  0  0  0  0  0  0
    0.0000    0.0000    0.0000 N   0  0  0  0  0  0  0  0  0  0  0  0
    0.0000    0.0000    0.0000 C   0  0  0  0  0  0  0  0  0  0  0  0
    0.0000    0.0000    0.0000 O   0  0  0  0  0  0  0  0  0  0  0  0
    0.0000    0.0000    0.0000 N   0  0  0  0  0  0  0  0  0  0  0  0
  2  1  1  0  0  0  0 
  3  2  2  0  0  0  0 
  4  3  1  0  0  0  0 
  5  4  2  0  0  0  0 
  6  5  1  0  0  0  0 
  7  6  1  0  0  0  0 
  8  7  2  0  0  0  0 
  8  4  1  0  0  0  0 
  9  5  1  0  0  0  0 
 10  9  2  0  0  0  0 
 11  9  1  0  0  0  0 
 11  2  1  0  0  0  0 
M  END
> <SMILES>
NC1=NC2=C(NC=N2)C(=O)N1

> <toxTree.tree.cramer.CramerTreeResult>
1Y

> <FORMULA>
C5H5N5O

> <NAME>
GUANINE

> <CAS>
73-40-5

> <toxTree.tree.cramer.CramerRules>
Low (Class I)

$$$$

  CDK    9/20/05,18:34

 20 22  0  0  0  0  0  0  0  0999 V2000
    0.0000    0.0000    0.0000 N   0  0  0  0  0  0  0  0  0  0  0  0
    0.0000    0.0000    0.0000 C   0  0  0  0  0  0  0  0  0  0  0  0
    0.0000    0.0000    0.0000 N   0  0  0  0  0  0  0  0  0  0  0  0
    0.0000    0.0000    0.0000 C   0  0  0  0  0  0  0  0  0  0  0  0
    0.0000    0.0000    0.0000 C   0  0  0  0  0  0  0  0  0  0  0  0
    0.0000    0.0000    0.0000 N   0  0  0  0  0  0  0  0  0  0  0  0
    0.0000    0.0000    0.0000 C   0  0  0  0  0  0  0  0  0  0  0  0
    0.0000    0.0000    0.0000 N   0  0  0  0  0  0  0  0  0  0  0  0
    0.0000    0.0000    0.0000 C   0  0  0  0  0  0  0  0  0  0  0  0
    0.0000    0.0000    0.0000 O   0  0  0  0  0  0  0  0  0  0  0  0
    0.0000    0.0000    0.0000 C   0  0  0  0  0  0  0  0  0  0  0  0
    0.0000    0.0000    0.0000 C   0  0  0  0  0  0  0  0  0  0  0  0
    0.0000    0.0000    0.0000 O   0  0  0  0  0  0  0  0  0  0  0  0
    0.0000    0.0000    0.0000 C   0  0  0  0  0  0  0  0  0  0  0  0
    0.0000    0.0000    0.0000 O   0  0  0  0  0  0  0  0  0  0  0  0
    0.0000    0.0000    0.0000 C   0  0  0  0  0  0  0  0  0  0  0  0
    0.0000    0.0000    0.0000 O   0  0  0  0  0  0  0  0  0  0  0  0
    0.0000    0.0000    0.0000 C   0  0  0  0  0  0  0  0  0  0  0  0
    0.0000    0.0000    0.0000 O   0  0  0  0  0  0  0  0  0  0  0  0
    0.0000    0.0000    0.0000 N   0  0  0  0  0  0  0  0  0  0  0  0
  2  1  1  0  0  0  0 
  3  2  2  0  0  0  0 
  4  3  1  0  0  0  0 
  5  4  2  0  0  0  0 
  6  5  1  0  0  0  0 
  7  6  2  0  0  0  0 
  8  7  1  0  0  0  0 
  8  4  1  0  0  0  0 
  9  8  1  0  0  0  0 
 10  9  1  0  0  0  0 
 11 10  1  0  0  0  0 
 12 11  1  0  0  0  0 
 13 12  1  0  0  0  0 
 14 11  1  0  0  0  0 
 15 14  1  0  0  0  0 
 16 14  1  0  0  0  0 
 16  9  1  0  0  0  0 
 17 16  1  0  0  0  0 
 18  5  1  0  0  0  0 
 19 18  2  0  0  0  0 
 20 18  1  0  0  0  0 
 20  2  1  0  0  0  0 
M  END
> <SMILES>
NC1=NC2=C(N=CN2[C@@H]3O[C@H](CO)[C@@H](O)[C@H]3O)C(=O)N1

> <toxTree.tree.cramer.CramerTreeResult>
1Y

> <FORMULA>
C10H13N5O5

> <NAME>
GUANOSINE

> <CAS>
118-00-3

> <toxTree.tree.cramer.CramerRules>
Low (Class I)

$$$$

  CDK    9/20/05,18:34

 11 11  0  0  0  0  0  0  0  0999 V2000
    0.0000    0.0000    0.0000 N   0  0  0  0  0  0  0  0  0  0  0  0
    0.0000    0.0000    0.0000 C   0  0  0  0  0  0  0  0  0  0  0  0
    0.0000    0.0000    0.0000 C   0  0  0  0  0  0  0  0  0  0  0  0
    0.0000    0.0000    0.0000 C   0  0  0  0  0  0  0  0  0  0  0  0
    0.0000    0.0000    0.0000 C   0  0  0  0  0  0  0  0  0  0  0  0
    0.0000    0.0000    0.0000 N   0  0  0  0  0  0  0  0  0  0  0  0
    0.0000    0.0000    0.0000 C   0  0  0  0  0  0  0  0  0  0  0  0
    0.0000    0.0000    0.0000 N   0  0  0  0  0  0  0  0  0  0  0  0
    0.0000    0.0000    0.0000 C   0  0  0  0  0  0  0  0  0  0  0  0
    0.0000    0.0000    0.0000 O   0  0  0  0  0  0  0  0  0  0  0  0
    0.0000    0.0000    0.0000 O   0  0  0  0  0  0  0  0  0  0  0  0
  2  1  1  0  0  0  0 
  3  2  1  0  0  0  0 
  4  3  1  0  0  0  0 
  5  4  2  0  0  0  0 
  6  5  1  0  0  0  0 
  7  6  1  0  0  0  0 
  8  7  2  0  0  0  0 
  8  4  1  0  0  0  0 
  9  2  1  0  0  0  0 
 10  9  1  0  0  0  0 
 11  9  2  0  0  0  0 
M  END
> <SMILES>
N[C@@H](CC1=CNC=N1)C(O)=O

> <toxTree.tree.cramer.CramerTreeResult>
1Y

> <FORMULA>
C6H9N3O2

> <NAME>
HISTIDINE

> <CAS>
71-00-1

> <toxTree.tree.cramer.CramerRules>
Low (Class I)

$$$$

  CDK    9/20/05,18:34

  9  8  0  0  0  0  0  0  0  0999 V2000
    0.0000    0.0000    0.0000 C   0  0  0  0  0  0  0  0  0  0  0  0
    0.0000    0.0000    0.0000 C   0  0  0  0  0  0  0  0  0  0  0  0
    0.0000    0.0000    0.0000 C   0  0  0  0  0  0  0  0  0  0  0  0
    0.0000    0.0000    0.0000 C   0  0  0  0  0  0  0  0  0  0  0  0
    0.0000    0.0000    0.0000 C   0  0  0  0  0  0  0  0  0  0  0  0
    0.0000    0.0000    0.0000 N   0  0  0  0  0  0  0  0  0  0  0  0
    0.0000    0.0000    0.0000 C   0  0  0  0  0  0  0  0  0  0  0  0
    0.0000    0.0000    0.0000 O   0  0  0  0  0  0  0  0  0  0  0  0
    0.0000    0.0000    0.0000 O   0  0  0  0  0  0  0  0  0  0  0  0
  2  1  1  0  0  0  0 
  3  2  1  0  0  0  0 
  4  3  1  0  0  0  0 
  5  3  1  0  0  0  0 
  6  5  1  0  0  0  0 
  7  5  1  0  0  0  0 
  8  7  1  0  0  0  0 
  9  7  2  0  0  0  0 
M  END
> <SMILES>
CC[C@H](C)[C@H](N)C(O)=O

> <toxTree.tree.cramer.CramerTreeResult>
1Y

> <FORMULA>
C6H13NO2

> <NAME>
ISOLEUCINE

> <CAS>
73-32-5

> <toxTree.tree.cramer.CramerRules>
Low (Class I)

$$$$

  CDK    9/20/05,18:34

  9  8  0  0  0  0  0  0  0  0999 V2000
    0.0000    0.0000    0.0000 C   0  0  0  0  0  0  0  0  0  0  0  0
    0.0000    0.0000    0.0000 C   0  0  0  0  0  0  0  0  0  0  0  0
    0.0000    0.0000    0.0000 C   0  0  0  0  0  0  0  0  0  0  0  0
    0.0000    0.0000    0.0000 C   0  0  0  0  0  0  0  0  0  0  0  0
    0.0000    0.0000    0.0000 C   0  0  0  0  0  0  0  0  0  0  0  0
    0.0000    0.0000    0.0000 N   0  0  0  0  0  0  0  0  0  0  0  0
    0.0000    0.0000    0.0000 C   0  0  0  0  0  0  0  0  0  0  0  0
    0.0000    0.0000    0.0000 O   0  0  0  0  0  0  0  0  0  0  0  0
    0.0000    0.0000    0.0000 O   0  0  0  0  0  0  0  0  0  0  0  0
  2  1  1  0  0  0  0 
  3  2  1  0  0  0  0 
  4  2  1  0  0  0  0 
  5  4  1  0  0  0  0 
  6  5  1  0  0  0  0 
  7  5  1  0  0  0  0 
  8  7  1  0  0  0  0 
  9  7  2  0  0  0  0 
M  END
> <SMILES>
CC(C)C[C@H](N)C(O)=O

> <toxTree.tree.cramer.CramerTreeResult>
1Y

> <FORMULA>
C6H13NO2

> <NAME>
LEUCINE

> <CAS>
61-90-5

> <toxTree.tree.cramer.CramerRules>
Low (Class I)

$$$$

  CDK    9/20/05,18:34

 10  9  0  0  0  0  0  0  0  0999 V2000
    0.0000    0.0000    0.0000 N   0  0  0  0  0  0  0  0  0  0  0  0
    0.0000    0.0000    0.0000 C   0  0  0  0  0  0  0  0  0  0  0  0
    0.0000    0.0000    0.0000 C   0  0  0  0  0  0  0  0  0  0  0  0
    0.0000    0.0000    0.0000 C   0  0  0  0  0  0  0  0  0  0  0  0
    0.0000    0.0000    0.0000 C   0  0  0  0  0  0  0  0  0  0  0  0
    0.0000    0.0000    0.0000 C   0  0  0  0  0  0  0  0  0  0  0  0
    0.0000    0.0000    0.0000 N   0  0  0  0  0  0  0  0  0  0  0  0
    0.0000    0.0000    0.0000 C   0  0  0  0  0  0  0  0  0  0  0  0
    0.0000    0.0000    0.0000 O   0  0  0  0  0  0  0  0  0  0  0  0
    0.0000    0.0000    0.0000 O   0  0  0  0  0  0  0  0  0  0  0  0
  2  1  1  0  0  0  0 
  3  2  1  0  0  0  0 
  4  3  1  0  0  0  0 
  5  4  1  0  0  0  0 
  6  5  1  0  0  0  0 
  7  6  1  0  0  0  0 
  8  6  1  0  0  0  0 
  9  8  1  0  0  0  0 
 10  8  2  0  0  0  0 
M  END
> <SMILES>
NCCCC[C@H](N)C(O)=O

> <toxTree.tree.cramer.CramerTreeResult>
1Y

> <FORMULA>
C6H14N2O2

> <NAME>
LYSINE

> <CAS>
56-87-1

> <toxTree.tree.cramer.CramerRules>
Low (Class I)

$$$$

  CDK    9/20/05,18:34

  9  8  0  0  0  0  0  0  0  0999 V2000
    0.0000    0.0000    0.0000 C   0  0  0  0  0  0  0  0  0  0  0  0
    0.0000    0.0000    0.0000 S   0  0  0  0  0  0  0  0  0  0  0  0
    0.0000    0.0000    0.0000 C   0  0  0  0  0  0  0  0  0  0  0  0
    0.0000    0.0000    0.0000 C   0  0  0  0  0  0  0  0  0  0  0  0
    0.0000    0.0000    0.0000 C   0  0  0  0  0  0  0  0  0  0  0  0
    0.0000    0.0000    0.0000 N   0  0  0  0  0  0  0  0  0  0  0  0
    0.0000    0.0000    0.0000 C   0  0  0  0  0  0  0  0  0  0  0  0
    0.0000    0.0000    0.0000 O   0  0  0  0  0  0  0  0  0  0  0  0
    0.0000    0.0000    0.0000 O   0  0  0  0  0  0  0  0  0  0  0  0
  2  1  1  0  0  0  0 
  3  2  1  0  0  0  0 
  4  3  1  0  0  0  0 
  5  4  1  0  0  0  0 
  6  5  1  0  0  0  0 
  7  5  1  0  0  0  0 
  8  7  1  0  0  0  0 
  9  7  2  0  0  0  0 
M  END
> <SMILES>
CSCC[C@H](N)C(O)=O

> <toxTree.tree.cramer.CramerTreeResult>
1Y

> <FORMULA>
C5H11NO2S

> <NAME>
METHIONINE

> <CAS>
63-68-3

> <toxTree.tree.cramer.CramerRules>
Low (Class I)

$$$$

  CDK    9/20/05,18:34

 12 12  0  0  0  0  0  0  0  0999 V2000
    0.0000    0.0000    0.0000 N   0  0  0  0  0  0  0  0  0  0  0  0
    0.0000    0.0000    0.0000 C   0  0  0  0  0  0  0  0  0  0  0  0
    0.0000    0.0000    0.0000 C   0  0  0  0  0  0  0  0  0  0  0  0
    0.0000    0.0000    0.0000 C   0  0  0  0  0  0  0  0  0  0  0  0
    0.0000    0.0000    0.0000 C   0  0  0  0  0  0  0  0  0  0  0  0
    0.0000    0.0000    0.0000 C   0  0  0  0  0  0  0  0  0  0  0  0
    0.0000    0.0000    0.0000 C   0  0  0  0  0  0  0  0  0  0  0  0
    0.0000    0.0000    0.0000 C   0  0  0  0  0  0  0  0  0  0  0  0
    0.0000    0.0000    0.0000 C   0  0  0  0  0  0  0  0  0  0  0  0
    0.0000    0.0000    0.0000 C   0  0  0  0  0  0  0  0  0  0  0  0
    0.0000    0.0000    0.0000 O   0  0  0  0  0  0  0  0  0  0  0  0
    0.0000    0.0000    0.0000 O   0  0  0  0  0  0  0  0  0  0  0  0
  2  1  1  0  0  0  0 
  3  2  1  0  0  0  0 
  4  3  1  0  0  0  0 
  5  4  2  0  0  0  0 
  6  5  1  0  0  0  0 
  7  6  2  0  0  0  0 
  8  7  1  0  0  0  0 
  9  8  2  0  0  0  0 
  9  4  1  0  0  0  0 
 10  2  1  0  0  0  0 
 11 10  1  0  0  0  0 
 12 10  2  0  0  0  0 
M  END
> <SMILES>
N[C@@H](CC1=CC=CC=C1)C(O)=O

> <toxTree.tree.cramer.CramerTreeResult>
1Y

> <FORMULA>
C9H11NO2

> <NAME>
PHENYLALANINE

> <CAS>
63-91-2

> <toxTree.tree.cramer.CramerRules>
Low (Class I)

$$$$

  CDK    9/20/05,18:34

 10  9  0  0  0  0  0  0  0  0999 V2000
    0.0000    0.0000    0.0000 O   0  0  0  0  0  0  0  0  0  0  0  0
    0.0000    0.0000    0.0000 C   0  0  0  0  0  0  0  0  0  0  0  0
    0.0000    0.0000    0.0000 O   0  0  0  0  0  0  0  0  0  0  0  0
    0.0000    0.0000    0.0000 C   0  0  0  0  0  0  0  0  0  0  0  0
    0.0000    0.0000    0.0000 C   0  0  0  0  0  0  0  0  0  0  0  0
    0.0000    0.0000    0.0000 O   0  0  0  0  0  0  0  0  0  0  0  0
    0.0000    0.0000    0.0000 P   0  0  0  0  0  0  0  0  0  0  0  0
    0.0000    0.0000    0.0000 O   0  0  0  0  0  0  0  0  0  0  0  0
    0.0000    0.0000    0.0000 O   0  0  0  0  0  0  0  0  0  0  0  0
    0.0000    0.0000    0.0000 O   0  0  0  0  0  0  0  0  0  0  0  0
  2  1  1  0  0  0  0 
  3  2  2  0  0  0  0 
  4  2  1  0  0  0  0 
  5  4  2  0  0  0  0 
  6  4  1  0  0  0  0 
  7  6  1  0  0  0  0 
  8  7  1  0  0  0  0 
  9  7  1  0  0  0  0 
 10  7  2  0  0  0  0 
M  CHG  1   9  -1
M  END
> <SMILES>
OC(=O)C(=C)OP(O)([O-])=O

> <toxTree.tree.cramer.CramerTreeResult>
1Y

> <FORMULA>
C3H4O6P

> <NAME>
PHOSPHOENOLPYRUVATE

> <CAS>
73-89-2

> <toxTree.tree.cramer.CramerRules>
Low (Class I)

$$$$

  CDK    9/20/05,18:34

  9  9  0  0  0  0  0  0  0  0999 V2000
    0.0000    0.0000    0.0000 H   0  0  0  0  0  0  0  0  0  0  0  0
    0.0000    0.0000    0.0000 C   0  0  0  0  0  0  0  0  0  0  0  0
    0.0000    0.0000    0.0000 C   0  0  0  0  0  0  0  0  0  0  0  0
    0.0000    0.0000    0.0000 C   0  0  0  0  0  0  0  0  0  0  0  0
    0.0000    0.0000    0.0000 C   0  0  0  0  0  0  0  0  0  0  0  0
    0.0000    0.0000    0.0000 N   0  0  0  0  0  0  0  0  0  0  0  0
    0.0000    0.0000    0.0000 C   0  0  0  0  0  0  0  0  0  0  0  0
    0.0000    0.0000    0.0000 O   0  0  0  0  0  0  0  0  0  0  0  0
    0.0000    0.0000    0.0000 O   0  0  0  0  0  0  0  0  0  0  0  0
  2  1  1  0  0  0  0 
  3  2  1  0  0  0  0 
  4  3  1  0  0  0  0 
  5  4  1  0  0  0  0 
  6  5  1  0  0  0  0 
  6  2  1  0  0  0  0 
  7  2  1  0  0  0  0 
  8  7  1  0  0  0  0 
  9  7  2  0  0  0  0 
M  END
> <SMILES>
[H][C@@]1(CCCN1)C(O)=O

> <toxTree.tree.cramer.CramerTreeResult>
1Y

> <FORMULA>
C5H9NO2

> <NAME>
PROLINE

> <CAS>
147-85-3

> <toxTree.tree.cramer.CramerRules>
Low (Class I)

$$$$

  CDK    9/20/05,18:34

  7  6  0  0  0  0  0  0  0  0999 V2000
    0.0000    0.0000    0.0000 N   0  0  0  0  0  0  0  0  0  0  0  0
    0.0000    0.0000    0.0000 C   0  0  0  0  0  0  0  0  0  0  0  0
    0.0000    0.0000    0.0000 C   0  0  0  0  0  0  0  0  0  0  0  0
    0.0000    0.0000    0.0000 O   0  0  0  0  0  0  0  0  0  0  0  0
    0.0000    0.0000    0.0000 C   0  0  0  0  0  0  0  0  0  0  0  0
    0.0000    0.0000    0.0000 O   0  0  0  0  0  0  0  0  0  0  0  0
    0.0000    0.0000    0.0000 O   0  0  0  0  0  0  0  0  0  0  0  0
  2  1  1  0  0  0  0 
  3  2  1  0  0  0  0 
  4  3  1  0  0  0  0 
  5  2  1  0  0  0  0 
  6  5  1  0  0  0  0 
  7  5  2  0  0  0  0 
M  END
> <SMILES>
N[C@@H](CO)C(O)=O

> <toxTree.tree.cramer.CramerTreeResult>
1Y

> <FORMULA>
C3H7NO3

> <NAME>
SERINE

> <CAS>
56-45-1

> <toxTree.tree.cramer.CramerRules>
Low (Class I)

$$$$

  CDK    9/20/05,18:34

  8  7  0  0  0  0  0  0  0  0999 V2000
    0.0000    0.0000    0.0000 C   0  0  0  0  0  0  0  0  0  0  0  0
    0.0000    0.0000    0.0000 C   0  0  0  0  0  0  0  0  0  0  0  0
    0.0000    0.0000    0.0000 O   0  0  0  0  0  0  0  0  0  0  0  0
    0.0000    0.0000    0.0000 C   0  0  0  0  0  0  0  0  0  0  0  0
    0.0000    0.0000    0.0000 N   0  0  0  0  0  0  0  0  0  0  0  0
    0.0000    0.0000    0.0000 C   0  0  0  0  0  0  0  0  0  0  0  0
    0.0000    0.0000    0.0000 O   0  0  0  0  0  0  0  0  0  0  0  0
    0.0000    0.0000    0.0000 O   0  0  0  0  0  0  0  0  0  0  0  0
  2  1  1  0  0  0  0 
  3  2  1  0  0  0  0 
  4  2  1  0  0  0  0 
  5  4  1  0  0  0  0 
  6  4  1  0  0  0  0 
  7  6  1  0  0  0  0 
  8  6  2  0  0  0  0 
M  END
> <SMILES>
CC(O)C(N)C(O)=O

> <toxTree.tree.cramer.CramerTreeResult>
1Y

> <FORMULA>
C4H9NO3

> <NAME>
THREONINE

> <CAS>
72-19-5

> <toxTree.tree.cramer.CramerRules>
Low (Class I)

$$$$

  CDK    9/20/05,18:34

  9  9  0  0  0  0  0  0  0  0999 V2000
    0.0000    0.0000    0.0000 C   0  0  0  0  0  0  0  0  0  0  0  0
    0.0000    0.0000    0.0000 C   0  0  0  0  0  0  0  0  0  0  0  0
    0.0000    0.0000    0.0000 C   0  0  0  0  0  0  0  0  0  0  0  0
    0.0000    0.0000    0.0000 N   0  0  0  0  0  0  0  0  0  0  0  0
    0.0000    0.0000    0.0000 C   0  0  0  0  0  0  0  0  0  0  0  0
    0.0000    0.0000    0.0000 O   0  0  0  0  0  0  0  0  0  0  0  0
    0.0000    0.0000    0.0000 N   0  0  0  0  0  0  0  0  0  0  0  0
    0.0000    0.0000    0.0000 C   0  0  0  0  0  0  0  0  0  0  0  0
    0.0000    0.0000    0.0000 O   0  0  0  0  0  0  0  0  0  0  0  0
  2  1  1  0  0  0  0 
  3  2  2  0  0  0  0 
  4  3  1  0  0  0  0 
  5  4  1  0  0  0  0 
  6  5  2  0  0  0  0 
  7  5  1  0  0  0  0 
  8  7  1  0  0  0  0 
  8  2  1  0  0  0  0 
  9  8  2  0  0  0  0 
M  END
> <SMILES>
CC1=CNC(=O)NC1=O

> <toxTree.tree.cramer.CramerTreeResult>
1Y

> <FORMULA>
C5H6N2O2

> <NAME>
THYMINE

> <CAS>
65-71-4

> <toxTree.tree.cramer.CramerRules>
Low (Class I)

$$$$

  CDK    9/20/05,18:34

 15 16  0  0  0  0  0  0  0  0999 V2000
    0.0000    0.0000    0.0000 N   0  0  0  0  0  0  0  0  0  0  0  0
    0.0000    0.0000    0.0000 C   0  0  0  0  0  0  0  0  0  0  0  0
    0.0000    0.0000    0.0000 C   0  0  0  0  0  0  0  0  0  0  0  0
    0.0000    0.0000    0.0000 C   0  0  0  0  0  0  0  0  0  0  0  0
    0.0000    0.0000    0.0000 C   0  0  0  0  0  0  0  0  0  0  0  0
    0.0000    0.0000    0.0000 N   0  0  0  0  0  0  0  0  0  0  0  0
    0.0000    0.0000    0.0000 C   0  0  0  0  0  0  0  0  0  0  0  0
    0.0000    0.0000    0.0000 C   0  0  0  0  0  0  0  0  0  0  0  0
    0.0000    0.0000    0.0000 C   0  0  0  0  0  0  0  0  0  0  0  0
    0.0000    0.0000    0.0000 C   0  0  0  0  0  0  0  0  0  0  0  0
    0.0000    0.0000    0.0000 C   0  0  0  0  0  0  0  0  0  0  0  0
    0.0000    0.0000    0.0000 C   0  0  0  0  0  0  0  0  0  0  0  0
    0.0000    0.0000    0.0000 C   0  0  0  0  0  0  0  0  0  0  0  0
    0.0000    0.0000    0.0000 O   0  0  0  0  0  0  0  0  0  0  0  0
    0.0000    0.0000    0.0000 O   0  0  0  0  0  0  0  0  0  0  0  0
  2  1  1  0  0  0  0 
  3  2  1  0  0  0  0 
  4  3  1  0  0  0  0 
  5  4  2  0  0  0  0 
  6  5  1  0  0  0  0 
  7  6  1  0  0  0  0 
  8  7  2  0  0  0  0 
  8  4  1  0  0  0  0 
  9  8  1  0  0  0  0 
 10  9  2  0  0  0  0 
 11 10  1  0  0  0  0 
 12 11  2  0  0  0  0 
 12  7  1  0  0  0  0 
 13  2  1  0  0  0  0 
 14 13  1  0  0  0  0 
 15 13  2  0  0  0  0 
M  END
> <SMILES>
N[C@@H](CC1=CNC2=C1C=CC=C2)C(O)=O

> <toxTree.tree.cramer.CramerTreeResult>
1Y

> <FORMULA>
C11H12N2O2

> <NAME>
TRYPTOPHAN

> <CAS>
73-22-3

> <toxTree.tree.cramer.CramerRules>
Low (Class I)

$$$$

  CDK    9/20/05,18:34

 13 13  0  0  0  0  0  0  0  0999 V2000
    0.0000    0.0000    0.0000 N   0  0  0  0  0  0  0  0  0  0  0  0
    0.0000    0.0000    0.0000 C   0  0  0  0  0  0  0  0  0  0  0  0
    0.0000    0.0000    0.0000 C   0  0  0  0  0  0  0  0  0  0  0  0
    0.0000    0.0000    0.0000 C   0  0  0  0  0  0  0  0  0  0  0  0
    0.0000    0.0000    0.0000 C   0  0  0  0  0  0  0  0  0  0  0  0
    0.0000    0.0000    0.0000 C   0  0  0  0  0  0  0  0  0  0  0  0
    0.0000    0.0000    0.0000 C   0  0  0  0  0  0  0  0  0  0  0  0
    0.0000    0.0000    0.0000 O   0  0  0  0  0  0  0  0  0  0  0  0
    0.0000    0.0000    0.0000 C   0  0  0  0  0  0  0  0  0  0  0  0
    0.0000    0.0000    0.0000 C   0  0  0  0  0  0  0  0  0  0  0  0
    0.0000    0.0000    0.0000 C   0  0  0  0  0  0  0  0  0  0  0  0
    0.0000    0.0000    0.0000 O   0  0  0  0  0  0  0  0  0  0  0  0
    0.0000    0.0000    0.0000 O   0  0  0  0  0  0  0  0  0  0  0  0
  2  1  1  0  0  0  0 
  3  2  1  0  0  0  0 
  4  3  1  0  0  0  0 
  5  4  2  0  0  0  0 
  6  5  1  0  0  0  0 
  7  6  2  0  0  0  0 
  8  7  1  0  0  0  0 
  9  7  1  0  0  0  0 
 10  9  2  0  0  0  0 
 10  4  1  0  0  0  0 
 11  2  1  0  0  0  0 
 12 11  1  0  0  0  0 
 13 11  2  0  0  0  0 
M  END
> <SMILES>
N[C@@H](CC1=CC=C(O)C=C1)C(O)=O

> <toxTree.tree.cramer.CramerTreeResult>
1Y

> <FORMULA>
C9H11NO3

> <NAME>
TYROSINE

> <CAS>
60-18-4

> <toxTree.tree.cramer.CramerRules>
Low (Class I)

$$$$

  CDK    9/20/05,18:34

  8  8  0  0  0  0  0  0  0  0999 V2000
    0.0000    0.0000    0.0000 O   0  0  0  0  0  0  0  0  0  0  0  0
    0.0000    0.0000    0.0000 C   0  0  0  0  0  0  0  0  0  0  0  0
    0.0000    0.0000    0.0000 N   0  0  0  0  0  0  0  0  0  0  0  0
    0.0000    0.0000    0.0000 C   0  0  0  0  0  0  0  0  0  0  0  0
    0.0000    0.0000    0.0000 C   0  0  0  0  0  0  0  0  0  0  0  0
    0.0000    0.0000    0.0000 C   0  0  0  0  0  0  0  0  0  0  0  0
    0.0000    0.0000    0.0000 O   0  0  0  0  0  0  0  0  0  0  0  0
    0.0000    0.0000    0.0000 N   0  0  0  0  0  0  0  0  0  0  0  0
  2  1  2  0  0  0  0 
  3  2  1  0  0  0  0 
  4  3  1  0  0  0  0 
  5  4  2  0  0  0  0 
  6  5  1  0  0  0  0 
  7  6  2  0  0  0  0 
  8  6  1  0  0  0  0 
  8  2  1  0  0  0  0 
M  END
> <SMILES>
O=C1NC=CC(=O)N1

> <toxTree.tree.cramer.CramerTreeResult>
1Y

> <FORMULA>
C4H4N2O2

> <NAME>
URACIL

> <CAS>
66-22-8

> <toxTree.tree.cramer.CramerRules>
Low (Class I)

$$$$

  CDK    9/20/05,18:34

 17 18  0  0  0  0  0  0  0  0999 V2000
    0.0000    0.0000    0.0000 O   0  0  0  0  0  0  0  0  0  0  0  0
    0.0000    0.0000    0.0000 C   0  0  0  0  0  0  0  0  0  0  0  0
    0.0000    0.0000    0.0000 C   0  0  0  0  0  0  0  0  0  0  0  0
    0.0000    0.0000    0.0000 O   0  0  0  0  0  0  0  0  0  0  0  0
    0.0000    0.0000    0.0000 C   0  0  0  0  0  0  0  0  0  0  0  0
    0.0000    0.0000    0.0000 N   0  0  0  0  0  0  0  0  0  0  0  0
    0.0000    0.0000    0.0000 C   0  0  0  0  0  0  0  0  0  0  0  0
    0.0000    0.0000    0.0000 C   0  0  0  0  0  0  0  0  0  0  0  0
    0.0000    0.0000    0.0000 C   0  0  0  0  0  0  0  0  0  0  0  0
    0.0000    0.0000    0.0000 O   0  0  0  0  0  0  0  0  0  0  0  0
    0.0000    0.0000    0.0000 N   0  0  0  0  0  0  0  0  0  0  0  0
    0.0000    0.0000    0.0000 C   0  0  0  0  0  0  0  0  0  0  0  0
    0.0000    0.0000    0.0000 O   0  0  0  0  0  0  0  0  0  0  0  0
    0.0000    0.0000    0.0000 C   0  0  0  0  0  0  0  0  0  0  0  0
    0.0000    0.0000    0.0000 O   0  0  0  0  0  0  0  0  0  0  0  0
    0.0000    0.0000    0.0000 C   0  0  0  0  0  0  0  0  0  0  0  0
    0.0000    0.0000    0.0000 O   0  0  0  0  0  0  0  0  0  0  0  0
  2  1  1  0  0  0  0 
  3  2  1  0  0  0  0 
  4  3  1  0  0  0  0 
  5  4  1  0  0  0  0 
  6  5  1  0  0  0  0 
  7  6  1  0  0  0  0 
  8  7  2  0  0  0  0 
  9  8  1  0  0  0  0 
 10  9  2  0  0  0  0 
 11  9  1  0  0  0  0 
 12 11  1  0  0  0  0 
 12  6  1  0  0  0  0 
 13 12  2  0  0  0  0 
 14  5  1  0  0  0  0 
 15 14  1  0  0  0  0 
 16 14  1  0  0  0  0 
 16  3  1  0  0  0  0 
 17 16  1  0  0  0  0 
M  END
> <SMILES>
OC[C@H]1O[C@@H](N2C=CC(=O)NC2=O)[C@H](O)[C@@H]1O

> <toxTree.tree.cramer.CramerTreeResult>
1Y

> <FORMULA>
C9H12N2O6

> <NAME>
URIDINE

> <CAS>
58-96-8

> <toxTree.tree.cramer.CramerRules>
Low (Class I)

$$$$

  CDK    9/20/05,18:34

  8  7  0  0  0  0  0  0  0  0999 V2000
    0.0000    0.0000    0.0000 C   0  0  0  0  0  0  0  0  0  0  0  0
    0.0000    0.0000    0.0000 C   0  0  0  0  0  0  0  0  0  0  0  0
    0.0000    0.0000    0.0000 C   0  0  0  0  0  0  0  0  0  0  0  0
    0.0000    0.0000    0.0000 C   0  0  0  0  0  0  0  0  0  0  0  0
    0.0000    0.0000    0.0000 N   0  0  0  0  0  0  0  0  0  0  0  0
    0.0000    0.0000    0.0000 C   0  0  0  0  0  0  0  0  0  0  0  0
    0.0000    0.0000    0.0000 O   0  0  0  0  0  0  0  0  0  0  0  0
    0.0000    0.0000    0.0000 O   0  0  0  0  0  0  0  0  0  0  0  0
  2  1  1  0  0  0  0 
  3  2  1  0  0  0  0 
  4  2  1  0  0  0  0 
  5  4  1  0  0  0  0 
  6  4  1  0  0  0  0 
  7  6  1  0  0  0  0 
  8  6  2  0  0  0  0 
M  END
> <SMILES>
CC(C)[C@H](N)C(O)=O

> <toxTree.tree.cramer.CramerTreeResult>
1Y

> <FORMULA>
C5H11NO2

> <NAME>
VALINE

> <CAS>
72-18-4

> <toxTree.tree.cramer.CramerRules>
Low (Class I)

$$$$

  CDK    9/20/05,18:34

  3  2  0  0  0  0  0  0  0  0999 V2000
    0.0000    0.0000    0.0000 H   0  0  0  0  0  0  0  0  0  0  0  0
    0.0000    0.0000    0.0000 O   0  0  0  0  0  0  0  0  0  0  0  0
    0.0000    0.0000    0.0000 H   0  0  0  0  0  0  0  0  0  0  0  0
  2  1  1  0  0  0  0 
  3  2  1  0  0  0  0 
M  END
> <SMILES>
[H]O[H]

> <toxTree.tree.cramer.CramerTreeResult>
1Y

> <FORMULA>
H2O

> <NAME>
WATER

> <CAS>
7732-18-5

> <toxTree.tree.cramer.CramerRules>
Low (Class I)

$$$$
Adenosine phosphate
  Marvin  10040515452D

 23 25  0  0  0  0            999 V2000
    1.8025    0.6850    0.0000 N   0  0  0  0  0  0  0  0  0  0  0  0
    1.0895    1.0856    0.0000 C   0  0  0  0  0  0  0  0  0  0  0  0
    1.8065   -1.1015    0.0000 C   0  0  2  0  0  0  0  0  0  0  0  0
    2.5115    1.0935    0.0000 C   0  0  0  0  0  0  0  0  0  0  0  0
    1.0895    1.9106    0.0000 C   0  0  0  0  0  0  0  0  0  0  0  0
    0.3806    0.6850    0.0000 N   0  0  0  0  0  0  0  0  0  0  0  0
    0.7970   -0.5407    0.0000 O   0  0  0  0  0  0  0  0  0  0  0  0
    1.4138   -1.8746    0.0000 C   0  0  1  0  0  0  0  0  0  0  0  0
    2.5074    1.9147    0.0000 N   0  0  0  0  0  0  0  0  0  0  0  0
    0.3806    2.3112    0.0000 C   0  0  0  0  0  0  0  0  0  0  0  0
   -0.3164    1.0895    0.0000 C   0  0  0  0  0  0  0  0  0  0  0  0
   -0.2243   -1.1015    0.0000 C   0  0  1  0  0  0  0  0  0  0  0  0
    0.1562   -1.8746    0.0000 C   0  0  1  0  0  0  0  0  0  0  0  0
    1.6263   -2.5355    0.0000 O   0  0  0  0  0  0  0  0  0  0  0  0
   -0.3164    1.9026    0.0000 N   0  0  0  0  0  0  0  0  0  0  0  0
    0.3806    3.1202    0.0000 N   0  0  0  0  0  0  0  0  0  0  0  0
   -0.8291   -0.5968    0.0000 C   0  0  0  0  0  0  0  0  0  0  0  0
   -0.1201   -2.5355    0.0000 O   0  0  0  0  0  0  0  0  0  0  0  0
   -1.6904   -0.9653    0.0000 O   0  0  0  0  0  0  0  0  0  0  0  0
   -2.8479   -0.5888    0.0000 P   0  0  0  0  0  0  0  0  0  0  0  0
   -3.9174   -0.9133    0.0000 O   0  0  0  0  0  0  0  0  0  0  0  0
   -2.8519   -1.5341    0.0000 O   0  0  0  0  0  0  0  0  0  0  0  0
   -2.8439    0.3565    0.0000 O   0  0  0  0  0  0  0  0  0  0  0  0
  1  2  1  0  0  0  0
  3  1  1  1  0  0  0
  1  4  1  0  0  0  0
  2  5  1  0  0  0  0
  2  6  2  0  0  0  0
  3  7  1  0  0  0  0
  3  8  1  0  0  0  0
  4  9  2  0  0  0  0
  5 10  2  0  0  0  0
  6 11  1  0  0  0  0
  7 12  1  0  0  0  0
  8 13  1  0  0  0  0
  8 14  1  6  0  0  0
 10 15  1  0  0  0  0
 10 16  1  0  0  0  0
 12 17  1  1  0  0  0
 13 18  1  6  0  0  0
 17 19  1  0  0  0  0
 19 20  1  0  0  0  0
 20 21  1  0  0  0  0
 20 22  1  0  0  0  0
 20 23  2  0  0  0  0
  5  9  1  0  0  0  0
 11 15  2  0  0  0  0
 12 13  1  0  0  0  0
M  END

$$$$
Adenosine diphosphate
  Marvin  10040515592D

 27 29  0  0  0  0            999 V2000
    2.4482    0.7791    0.0000 N   0  0  0  0  0  0  0  0  0  0  0  0
    1.7417    1.1841    0.0000 C   0  0  0  0  0  0  0  0  0  0  0  0
    2.4598   -1.0083    0.0000 C   0  0  2  0  0  0  0  0  0  0  0  0
    3.1510    1.1878    0.0000 C   0  0  0  0  0  0  0  0  0  0  0  0
    1.7379    2.0091    0.0000 C   0  0  0  0  0  0  0  0  0  0  0  0
    1.0351    0.7830    0.0000 N   0  0  0  0  0  0  0  0  0  0  0  0
    1.4437   -0.4430    0.0000 O   0  0  0  0  0  0  0  0  0  0  0  0
    2.0663   -1.7760    0.0000 C   0  0  1  0  0  0  0  0  0  0  0  0
    3.1473    2.0128    0.0000 N   0  0  0  0  0  0  0  0  0  0  0  0
    1.0313    2.4062    0.0000 C   0  0  0  0  0  0  0  0  0  0  0  0
    0.3361    1.1841    0.0000 C   0  0  0  0  0  0  0  0  0  0  0  0
    0.4317   -1.0083    0.0000 C   0  0  1  0  0  0  0  0  0  0  0  0
    0.8097   -1.7760    0.0000 C   0  0  1  0  0  0  0  0  0  0  0  0
    2.2841   -2.4331    0.0000 O   0  0  0  0  0  0  0  0  0  0  0  0
    0.3361    2.0052    0.0000 N   0  0  0  0  0  0  0  0  0  0  0  0
    1.0313    3.2198    0.0000 N   0  0  0  0  0  0  0  0  0  0  0  0
   -0.1757   -0.4927    0.0000 C   0  0  0  0  0  0  0  0  0  0  0  0
    0.5271   -2.4331    0.0000 O   0  0  0  0  0  0  0  0  0  0  0  0
   -1.0351   -0.8632    0.0000 O   0  0  0  0  0  0  0  0  0  0  0  0
   -2.0663   -0.4660    0.0000 P   0  0  3  0  0  0  0  0  0  0  0  0
   -2.9945   -0.9014    0.0000 O   0  0  0  0  0  0  0  0  0  0  0  0
   -2.0663    0.2711    0.0000 O   0  0  0  0  0  0  0  0  0  0  0  0
   -2.0663   -1.2108    0.0000 O   0  0  0  0  0  0  0  0  0  0  0  0
   -3.6935   -0.4354    0.0000 P   0  0  0  0  0  0  0  0  0  0  0  0
   -4.5261   -0.9014    0.0000 O   0  0  0  0  0  0  0  0  0  0  0  0
   -3.6935    0.2827    0.0000 O   0  0  0  0  0  0  0  0  0  0  0  0
   -3.6935   -1.1802    0.0000 O   0  0  0  0  0  0  0  0  0  0  0  0
  1  2  1  0  0  0  0
  3  1  1  1  0  0  0
  1  4  1  0  0  0  0
  2  5  1  0  0  0  0
  2  6  2  0  0  0  0
  3  7  1  0  0  0  0
  3  8  1  0  0  0  0
  4  9  2  0  0  0  0
  5 10  2  0  0  0  0
  6 11  1  0  0  0  0
  7 12  1  0  0  0  0
  8 13  1  0  0  0  0
  8 14  1  6  0  0  0
 10 15  1  0  0  0  0
 10 16  1  0  0  0  0
 12 17  1  1  0  0  0
 13 18  1  6  0  0  0
 17 19  1  0  0  0  0
 19 20  1  0  0  0  0
 20 21  1  0  0  0  0
 20 22  1  0  0  0  0
 20 23  2  0  0  0  0
 21 24  1  0  0  0  0
 24 25  1  0  0  0  0
 24 26  1  0  0  0  0
 24 27  2  0  0  0  0
  5  9  1  0  0  0  0
 11 15  2  0  0  0  0
 12 13  1  0  0  0  0
M  END

$$$$
Adenosine triphosphate
  Marvin  10040516002D

 31 33  0  0  0  0            999 V2000
    3.1752    0.8591    0.0000 N   0  0  0  0  0  0  0  0  0  0  0  0
    2.4713    1.2678    0.0000 C   0  0  0  0  0  0  0  0  0  0  0  0
    3.1865   -0.9347    0.0000 C   0  0  2  0  0  0  0  0  0  0  0  0
    3.8904    1.2715    0.0000 C   0  0  0  0  0  0  0  0  0  0  0  0
    2.4675    2.0928    0.0000 C   0  0  0  0  0  0  0  0  0  0  0  0
    1.7635    0.8628    0.0000 N   0  0  0  0  0  0  0  0  0  0  0  0
    2.1686   -0.3671    0.0000 O   0  0  0  0  0  0  0  0  0  0  0  0
    2.7929   -1.7106    0.0000 C   0  0  1  0  0  0  0  0  0  0  0  0
    3.8867    2.0965    0.0000 N   0  0  0  0  0  0  0  0  0  0  0  0
    1.7597    2.4978    0.0000 C   0  0  0  0  0  0  0  0  0  0  0  0
    1.0559    1.2678    0.0000 C   0  0  0  0  0  0  0  0  0  0  0  0
    1.1543   -0.9347    0.0000 C   0  0  1  0  0  0  0  0  0  0  0  0
    1.5328   -1.7106    0.0000 C   0  0  1  0  0  0  0  0  0  0  0  0
    3.0124   -2.3653    0.0000 O   0  0  0  0  0  0  0  0  0  0  0  0
    1.0559    2.0890    0.0000 N   0  0  0  0  0  0  0  0  0  0  0  0
    1.7597    3.3114    0.0000 N   0  0  0  0  0  0  0  0  0  0  0  0
    0.5450   -0.4202    0.0000 C   0  0  0  0  0  0  0  0  0  0  0  0
    1.2489   -2.3653    0.0000 O   0  0  0  0  0  0  0  0  0  0  0  0
   -0.3217   -0.7872    0.0000 O   0  0  0  0  0  0  0  0  0  0  0  0
   -1.3662   -0.3899    0.0000 P   0  0  3  0  0  0  0  0  0  0  0  0
   -2.2935   -0.8250    0.0000 O   0  0  0  0  0  0  0  0  0  0  0  0
   -1.3662    0.3481    0.0000 O   0  0  0  0  0  0  0  0  0  0  0  0
   -1.3662   -1.1429    0.0000 O   0  0  0  0  0  0  0  0  0  0  0  0
   -2.9973   -0.3596    0.0000 P   0  0  3  0  0  0  0  0  0  0  0  0
   -3.8337   -0.8250    0.0000 O   0  0  0  0  0  0  0  0  0  0  0  0
   -2.9973    0.3596    0.0000 O   0  0  0  0  0  0  0  0  0  0  0  0
   -2.9973   -1.1126    0.0000 O   0  0  0  0  0  0  0  0  0  0  0  0
   -4.6587   -0.4542    0.0000 P   0  0  0  0  0  0  0  0  0  0  0  0
   -4.6587    0.2725    0.0000 O   0  0  0  0  0  0  0  0  0  0  0  0
   -5.4042   -0.7001    0.0000 O   0  0  0  0  0  0  0  0  0  0  0  0
   -4.6587   -1.2035    0.0000 O   0  0  0  0  0  0  0  0  0  0  0  0
  1  2  1  0  0  0  0
  3  1  1  1  0  0  0
  1  4  1  0  0  0  0
  2  5  1  0  0  0  0
  2  6  2  0  0  0  0
  3  7  1  0  0  0  0
  3  8  1  0  0  0  0
  4  9  2  0  0  0  0
  5 10  2  0  0  0  0
  6 11  1  0  0  0  0
  7 12  1  0  0  0  0
  8 13  1  0  0  0  0
  8 14  1  6  0  0  0
 10 15  1  0  0  0  0
 10 16  1  0  0  0  0
 12 17  1  1  0  0  0
 13 18  1  6  0  0  0
 17 19  1  0  0  0  0
 19 20  1  0  0  0  0
 20 21  1  0  0  0  0
 20 22  1  0  0  0  0
 20 23  2  0  0  0  0
 21 24  1  0  0  0  0
 24 25  1  0  0  0  0
 24 26  1  0  0  0  0
 24 27  2  0  0  0  0
 25 28  1  0  0  0  0
 28 29  1  0  0  0  0
 28 30  1  0  0  0  0
 28 31  2  0  0  0  0
  5  9  1  0  0  0  0
 11 15  2  0  0  0  0
 12 13  1  0  0  0  0
M  END

$$$$
Guanosine monophosphate
  Marvin  10040516022D

 24 26  0  0  0  0            999 V2000
    1.1259    1.0582    0.0000 C   0  0  0  0  0  0  0  0  0  0  0  0
    1.8459    0.6525    0.0000 N   0  0  0  0  0  0  0  0  0  0  0  0
    1.1298    1.8817    0.0000 C   0  0  0  0  0  0  0  0  0  0  0  0
    0.4217    0.6525    0.0000 N   0  0  0  0  0  0  0  0  0  0  0  0
    1.8499   -1.1259    0.0000 C   0  0  2  0  0  0  0  0  0  0  0  0
    2.5462    1.0662    0.0000 C   0  0  0  0  0  0  0  0  0  0  0  0
    2.5421    1.8857    0.0000 N   0  0  0  0  0  0  0  0  0  0  0  0
    0.4217    2.2796    0.0000 C   0  0  0  0  0  0  0  0  0  0  0  0
   -0.2745    1.0623    0.0000 C   0  0  0  0  0  0  0  0  0  0  0  0
    0.8395   -0.5729    0.0000 O   0  0  0  0  0  0  0  0  0  0  0  0
    1.4482   -1.8976    0.0000 C   0  0  1  0  0  0  0  0  0  0  0  0
   -0.2745    1.8737    0.0000 N   0  0  0  0  0  0  0  0  0  0  0  0
    0.4217    3.0873    0.0000 O   0  0  0  0  0  0  0  0  0  0  0  0
   -0.9707    0.6525    0.0000 N   0  0  0  0  0  0  0  0  0  0  0  0
   -0.1791   -1.1259    0.0000 C   0  0  1  0  0  0  0  0  0  0  0  0
    0.1950   -1.8976    0.0000 C   0  0  1  0  0  0  0  0  0  0  0  0
    1.6630   -2.5580    0.0000 O   0  0  0  0  0  0  0  0  0  0  0  0
   -0.7837   -0.6285    0.0000 C   0  0  0  0  0  0  0  0  0  0  0  0
   -0.0755   -2.5580    0.0000 O   0  0  0  0  0  0  0  0  0  0  0  0
   -1.6430   -0.9905    0.0000 O   0  0  0  0  0  0  0  0  0  0  0  0
   -2.7967   -0.6205    0.0000 P   0  0  0  0  0  0  0  0  0  0  0  0
   -3.8669   -0.9389    0.0000 O   0  0  0  0  0  0  0  0  0  0  0  0
   -2.8008   -1.5595    0.0000 O   0  0  0  0  0  0  0  0  0  0  0  0
   -2.7928    0.3263    0.0000 O   0  0  0  0  0  0  0  0  0  0  0  0
  1  2  1  0  0  0  0
  1  3  2  0  0  0  0
  1  4  1  0  0  0  0
  5  2  1  1  0  0  0
  2  6  1  0  0  0  0
  3  7  1  0  0  0  0
  3  8  1  0  0  0  0
  4  9  2  0  0  0  0
  5 10  1  0  0  0  0
  5 11  1  0  0  0  0
  8 12  1  0  0  0  0
  8 13  2  0  0  0  0
  9 14  1  0  0  0  0
 10 15  1  0  0  0  0
 11 16  1  0  0  0  0
 11 17  1  6  0  0  0
 15 18  1  1  0  0  0
 16 19  1  6  0  0  0
 18 20  1  0  0  0  0
 20 21  1  0  0  0  0
 21 22  1  0  0  0  0
 21 23  1  0  0  0  0
 21 24  2  0  0  0  0
  6  7  2  0  0  0  0
  9 12  1  0  0  0  0
 15 16  1  0  0  0  0
M  END

$$$$
Guanosine diphosphate
  Marvin  10040516032D

 28 30  0  0  0  0            999 V2000
    2.4915    0.7233    0.0000 N   0  0  0  0  0  0  0  0  0  0  0  0
    1.7988    1.1136    0.0000 C   0  0  0  0  0  0  0  0  0  0  0  0
    2.4954   -0.9874    0.0000 C   0  0  2  0  0  0  0  0  0  0  0  0
    3.1651    1.1213    0.0000 C   0  0  0  0  0  0  0  0  0  0  0  0
    1.8026    1.9059    0.0000 C   0  0  0  0  0  0  0  0  0  0  0  0
    1.1213    0.7233    0.0000 N   0  0  0  0  0  0  0  0  0  0  0  0
    1.5232   -0.4553    0.0000 O   0  0  0  0  0  0  0  0  0  0  0  0
    2.1088   -1.7299    0.0000 C   0  0  1  0  0  0  0  0  0  0  0  0
    3.1613    1.9098    0.0000 N   0  0  0  0  0  0  0  0  0  0  0  0
    1.1213    2.2887    0.0000 C   0  0  0  0  0  0  0  0  0  0  0  0
    0.4516    1.1175    0.0000 C   0  0  0  0  0  0  0  0  0  0  0  0
    0.5435   -0.9874    0.0000 C   0  0  1  0  0  0  0  0  0  0  0  0
    0.9032   -1.7299    0.0000 C   0  0  1  0  0  0  0  0  0  0  0  0
    2.3154   -2.3651    0.0000 O   0  0  0  0  0  0  0  0  0  0  0  0
    0.4516    1.8982    0.0000 N   0  0  0  0  0  0  0  0  0  0  0  0
    1.1213    3.0657    0.0000 O   0  0  0  0  0  0  0  0  0  0  0  0
   -0.2182    0.7233    0.0000 N   0  0  0  0  0  0  0  0  0  0  0  0
   -0.0383   -0.5090    0.0000 C   0  0  0  0  0  0  0  0  0  0  0  0
    0.6429   -2.3651    0.0000 O   0  0  0  0  0  0  0  0  0  0  0  0
   -0.8649   -0.8573    0.0000 O   0  0  0  0  0  0  0  0  0  0  0  0
   -1.9748   -0.5014    0.0000 P   0  0  3  0  0  0  0  0  0  0  0  0
   -3.0044   -0.8075    0.0000 O   0  0  0  0  0  0  0  0  0  0  0  0
   -1.9787   -1.4045    0.0000 O   0  0  0  0  0  0  0  0  0  0  0  0
   -1.9711    0.4095    0.0000 O   0  0  0  0  0  0  0  0  0  0  0  0
   -4.0224   -0.5128    0.0000 P   0  0  0  0  0  0  0  0  0  0  0  0
   -5.0519   -0.8190    0.0000 O   0  0  0  0  0  0  0  0  0  0  0  0
   -4.0262   -1.4161    0.0000 O   0  0  0  0  0  0  0  0  0  0  0  0
   -4.0186    0.3980    0.0000 O   0  0  0  0  0  0  0  0  0  0  0  0
  1  2  1  0  0  0  0
  3  1  1  1  0  0  0
  1  4  1  0  0  0  0
  2  5  2  0  0  0  0
  2  6  1  0  0  0  0
  3  7  1  0  0  0  0
  3  8  1  0  0  0  0
  4  9  2  0  0  0  0
  5 10  1  0  0  0  0
  6 11  2  0  0  0  0
  7 12  1  0  0  0  0
  8 13  1  0  0  0  0
  8 14  1  6  0  0  0
 10 15  1  0  0  0  0
 10 16  2  0  0  0  0
 11 17  1  0  0  0  0
 12 18  1  1  0  0  0
 13 19  1  6  0  0  0
 18 20  1  0  0  0  0
 20 21  1  0  0  0  0
 21 22  1  0  0  0  0
 21 23  1  0  0  0  0
 21 24  2  0  0  0  0
 22 25  1  0  0  0  0
 25 26  1  0  0  0  0
 25 27  1  0  0  0  0
 25 28  2  0  0  0  0
  5  9  1  0  0  0  0
 11 15  1  0  0  0  0
 12 13  1  0  0  0  0
M  END

$$$$
Guanosine triphosphate
  Marvin  10040516042D

 32 34  0  0  0  0            999 V2000
    3.2833    0.7998    0.0000 N   0  0  0  0  0  0  0  0  0  0  0  0
    2.5908    1.1901    0.0000 C   0  0  0  0  0  0  0  0  0  0  0  0
    3.2872   -0.9108    0.0000 C   0  0  2  0  0  0  0  0  0  0  0  0
    3.9569    1.1977    0.0000 C   0  0  0  0  0  0  0  0  0  0  0  0
    2.5945    1.9823    0.0000 C   0  0  0  0  0  0  0  0  0  0  0  0
    1.9134    0.7998    0.0000 N   0  0  0  0  0  0  0  0  0  0  0  0
    2.3152   -0.3789    0.0000 O   0  0  0  0  0  0  0  0  0  0  0  0
    2.9008   -1.6532    0.0000 C   0  0  1  0  0  0  0  0  0  0  0  0
    3.9531    1.9861    0.0000 N   0  0  0  0  0  0  0  0  0  0  0  0
    1.9134    2.3649    0.0000 C   0  0  0  0  0  0  0  0  0  0  0  0
    1.2437    1.1940    0.0000 C   0  0  0  0  0  0  0  0  0  0  0  0
    1.3355   -0.9108    0.0000 C   0  0  1  0  0  0  0  0  0  0  0  0
    1.6953   -1.6532    0.0000 C   0  0  1  0  0  0  0  0  0  0  0  0
    3.1074   -2.2884    0.0000 O   0  0  0  0  0  0  0  0  0  0  0  0
    1.2437    1.9746    0.0000 N   0  0  0  0  0  0  0  0  0  0  0  0
    1.9134    3.1417    0.0000 O   0  0  0  0  0  0  0  0  0  0  0  0
    0.5739    0.7998    0.0000 N   0  0  0  0  0  0  0  0  0  0  0  0
    0.7539   -0.4324    0.0000 C   0  0  0  0  0  0  0  0  0  0  0  0
    1.4351   -2.2884    0.0000 O   0  0  0  0  0  0  0  0  0  0  0  0
   -0.0727   -0.7806    0.0000 O   0  0  0  0  0  0  0  0  0  0  0  0
   -1.1824   -0.4248    0.0000 P   0  0  3  0  0  0  0  0  0  0  0  0
   -2.2119   -0.7309    0.0000 O   0  0  0  0  0  0  0  0  0  0  0  0
   -1.1863   -1.3279    0.0000 O   0  0  0  0  0  0  0  0  0  0  0  0
   -1.1787    0.4860    0.0000 O   0  0  0  0  0  0  0  0  0  0  0  0
   -3.2298   -0.4363    0.0000 P   0  0  3  0  0  0  0  0  0  0  0  0
   -4.2591   -0.7424    0.0000 O   0  0  0  0  0  0  0  0  0  0  0  0
   -3.2336   -1.3394    0.0000 O   0  0  0  0  0  0  0  0  0  0  0  0
   -3.2260    0.4746    0.0000 O   0  0  0  0  0  0  0  0  0  0  0  0
   -5.3116   -0.4401    0.0000 P   0  0  0  0  0  0  0  0  0  0  0  0
   -6.3410   -0.7463    0.0000 O   0  0  0  0  0  0  0  0  0  0  0  0
   -5.3155   -1.3432    0.0000 O   0  0  0  0  0  0  0  0  0  0  0  0
   -5.3078    0.4706    0.0000 O   0  0  0  0  0  0  0  0  0  0  0  0
  1  2  1  0  0  0  0
  3  1  1  1  0  0  0
  1  4  1  0  0  0  0
  2  5  2  0  0  0  0
  2  6  1  0  0  0  0
  3  7  1  0  0  0  0
  3  8  1  0  0  0  0
  4  9  2  0  0  0  0
  5 10  1  0  0  0  0
  6 11  2  0  0  0  0
  7 12  1  0  0  0  0
  8 13  1  0  0  0  0
  8 14  1  6  0  0  0
 10 15  1  0  0  0  0
 10 16  2  0  0  0  0
 11 17  1  0  0  0  0
 12 18  1  1  0  0  0
 13 19  1  6  0  0  0
 18 20  1  0  0  0  0
 20 21  1  0  0  0  0
 21 22  1  0  0  0  0
 21 23  1  0  0  0  0
 21 24  2  0  0  0  0
 22 25  1  0  0  0  0
 25 26  1  0  0  0  0
 25 27  1  0  0  0  0
 25 28  2  0  0  0  0
 26 29  1  0  0  0  0
 29 30  1  0  0  0  0
 29 31  1  0  0  0  0
 29 32  2  0  0  0  0
  5  9  1  0  0  0  0
 11 15  1  0  0  0  0
 12 13  1  0  0  0  0
M  END

$$$$
Thymidine monophosphate
  Marvin  10040516042D

 21 22  0  0  0  0            999 V2000
    7.2274  -11.1728    0.0000 C   0  0  2  0  0  0  0  0  0  0  0  0
    7.2101   -9.0811    0.0000 N   0  0  0  0  0  0  0  0  0  0  0  0
    6.5542  -10.6965    0.0000 O   0  0  0  0  0  0  0  0  0  0  0  0
    6.9720  -11.9632    0.0000 C   0  0  0  0  0  0  0  0  0  0  0  0
    6.4956   -8.6702    0.0000 C   0  0  0  0  0  0  0  0  0  0  0  0
    7.9351   -8.6702    0.0000 C   0  0  0  0  0  0  0  0  0  0  0  0
    5.8882  -11.1900    0.0000 C   0  0  1  0  0  0  0  0  0  0  0  0
    6.1505  -11.9563    0.0000 C   0  0  1  0  0  0  0  0  0  0  0  0
    6.4956   -7.8420    0.0000 N   0  0  0  0  0  0  0  0  0  0  0  0
    5.7708   -9.1018    0.0000 O   0  0  0  0  0  0  0  0  0  0  0  0
    7.9453   -7.8489    0.0000 C   0  0  0  0  0  0  0  0  0  0  0  0
    5.0942  -10.9657    0.0000 C   0  0  0  0  0  0  0  0  0  0  0  0
    5.6397  -12.6329    0.0000 O   0  0  0  0  0  0  0  0  0  0  0  0
    7.2101   -7.4312    0.0000 C   0  0  0  0  0  0  0  0  0  0  0  0
    8.6909   -7.4484    0.0000 C   0  0  0  0  0  0  0  0  0  0  0  0
    4.8907  -10.1614    0.0000 O   0  0  0  0  0  0  0  0  0  0  0  0
    7.1998   -6.6062    0.0000 O   0  0  0  0  0  0  0  0  0  0  0  0
    4.1106   -9.9510    0.0000 P   0  0  0  0  0  0  0  0  0  0  0  0
    3.8896  -10.7448    0.0000 O   0  0  0  0  0  0  0  0  0  0  0  0
    4.3315   -9.1536    0.0000 O   0  0  0  0  0  0  0  0  0  0  0  0
    3.3132   -9.7300    0.0000 O   0  0  0  0  0  0  0  0  0  0  0  0
  1  2  1  1  0  0  0
  1  3  1  0  0  0  0
  1  4  1  0  0  0  0
  2  5  1  0  0  0  0
  2  6  1  0  0  0  0
  3  7  1  0  0  0  0
  4  8  1  0  0  0  0
  5  9  1  0  0  0  0
  5 10  2  0  0  0  0
  6 11  2  0  0  0  0
  7 12  1  1  0  0  0
  8 13  1  6  0  0  0
  9 14  1  0  0  0  0
 11 15  1  0  0  0  0
 12 16  1  0  0  0  0
 14 17  2  0  0  0  0
 16 18  1  0  0  0  0
 18 19  1  0  0  0  0
 18 20  1  0  0  0  0
 18 21  2  0  0  0  0
  7  8  1  0  0  0  0
 11 14  1  0  0  0  0
M  END

$$$$
Thymidine diphosphate
  Marvin  10040516072D

 25 26  0  0  0  0            999 V2000
    1.9458  -17.0125    0.0000 N   0  0  0  0  0  0  0  0  0  0  0  0
    1.2333  -16.6042    0.0000 C   0  0  0  0  0  0  0  0  0  0  0  0
    0.5250  -17.0125    0.0000 N   0  0  0  0  0  0  0  0  0  0  0  0
    2.6625  -16.5958    0.0000 C   0  0  2  0  0  0  0  0  0  0  0  0
    1.9458  -17.8375    0.0000 C   0  0  0  0  0  0  0  0  0  0  0  0
    1.2333  -18.2542    0.0000 C   0  0  0  0  0  0  0  0  0  0  0  0
    0.5250  -17.8375    0.0000 C   0  0  0  0  0  0  0  0  0  0  0  0
    4.7208  -14.4833    0.0000 P   0  0  0  0  0  0  0  0  0  0  0  0
    3.3292  -17.0792    0.0000 O   0  0  0  0  0  0  0  0  0  0  0  0
    2.9167  -15.8125    0.0000 C   0  0  0  0  0  0  0  0  0  0  0  0
    6.2458  -16.5500    0.0000 P   0  0  0  0  0  0  0  0  0  0  0  0
    3.7417  -15.8125    0.0000 C   0  0  1  0  0  0  0  0  0  0  0  0
    3.9958  -16.5958    0.0000 C   0  0  1  0  0  0  0  0  0  0  0  0
    4.2250  -15.1417    0.0000 O   0  0  0  0  0  0  0  0  0  0  0  0
    4.7250  -16.9792    0.0000 C   0  0  0  0  0  0  0  0  0  0  0  0
    1.2333  -15.7792    0.0000 O   0  0  0  0  0  0  0  0  0  0  0  0
    5.4208  -16.5375    0.0000 O   0  0  0  0  0  0  0  0  0  0  0  0
    5.3833  -14.9792    0.0000 O   0  0  0  0  0  0  0  0  0  0  0  0
    6.2333  -17.3750    0.0000 O   0  0  0  0  0  0  0  0  0  0  0  0
   -0.1917  -18.2458    0.0000 O   0  0  0  0  0  0  0  0  0  0  0  0
    5.2167  -13.8208    0.0000 O   0  0  0  0  0  0  0  0  0  0  0  0
    4.0583  -13.9875    0.0000 O   0  0  0  0  0  0  0  0  0  0  0  0
    6.2542  -15.7208    0.0000 O   0  0  0  0  0  0  0  0  0  0  0  0
    7.0708  -16.5583    0.0000 O   0  0  0  0  0  0  0  0  0  0  0  0
    1.2333  -19.0792    0.0000 C   0  0  0  0  0  0  0  0  0  0  0  0
  2  1  1  0  0  0  0
  3  2  1  0  0  0  0
  4  1  1  1  0  0  0
  5  1  1  0  0  0  0
  6  5  2  0  0  0  0
  7  6  1  0  0  0  0
  8 14  1  0  0  0  0
  9  4  1  0  0  0  0
 10  4  1  0  0  0  0
 11 17  1  0  0  0  0
 12 10  1  0  0  0  0
 13  9  1  0  0  0  0
 12 14  1  6  0  0  0
 13 15  1  1  0  0  0
 16  2  2  0  0  0  0
 17 15  1  0  0  0  0
 18  8  2  0  0  0  0
 19 11  2  0  0  0  0
 20  7  2  0  0  0  0
 21  8  1  0  0  0  0
 22  8  1  0  0  0  0
 23 11  1  0  0  0  0
 24 11  1  0  0  0  0
 25  6  1  0  0  0  0
 13 12  1  0  0  0  0
  3  7  1  0  0  0  0
M  END

$$$$
Thymidine triphosphate
  Marvin  10040516082D

 29 30  0  0  0  0            999 V2000
    1.7769   -4.2173    0.0000 P   0  0  3  0  0  0  0  0  0  0  0  0
    0.8630   -4.2173    0.0000 O   0  0  0  0  0  0  0  0  0  0  0  0
    1.7769   -3.3034    0.0000 O   0  0  0  0  0  0  0  0  0  0  0  0
    1.7723   -5.1313    0.0000 O   0  0  0  0  0  0  0  0  0  0  0  0
   -0.0510   -4.2127    0.0000 P   0  0  3  0  0  0  0  0  0  0  0  0
   -0.9651   -4.2173    0.0000 O   0  0  0  0  0  0  0  0  0  0  0  0
   -1.8790   -4.2173    0.0000 P   0  0  0  0  0  0  0  0  0  0  0  0
   -2.7930   -4.2173    0.0000 O   0  0  0  0  0  0  0  0  0  0  0  0
   -0.0557   -3.2987    0.0000 O   0  0  0  0  0  0  0  0  0  0  0  0
   -0.0464   -5.1267    0.0000 O   0  0  0  0  0  0  0  0  0  0  0  0
   -1.8837   -3.3034    0.0000 O   0  0  0  0  0  0  0  0  0  0  0  0
   -1.8790   -5.1313    0.0000 O   0  0  0  0  0  0  0  0  0  0  0  0
    2.7466   -4.2266    0.0000 O   0  0  0  0  0  0  0  0  0  0  0  0
    5.7165   -4.5066    0.0000 C   0  0  2  0  0  0  0  0  0  0  0  0
    5.7165   -2.6905    0.0000 N   0  0  0  0  0  0  0  0  0  0  0  0
    4.8104   -3.9538    0.0000 O   0  0  0  0  0  0  0  0  0  0  0  0
    5.3442   -5.2592    0.0000 C   0  0  0  0  0  0  0  0  0  0  0  0
    5.1215   -2.3334    0.0000 C   0  0  0  0  0  0  0  0  0  0  0  0
    6.3194   -2.3334    0.0000 C   0  0  0  0  0  0  0  0  0  0  0  0
    3.8851   -4.5066    0.0000 C   0  0  1  0  0  0  0  0  0  0  0  0
    4.2230   -5.2592    0.0000 C   0  0  1  0  0  0  0  0  0  0  0  0
    5.1215   -1.6307    0.0000 N   0  0  0  0  0  0  0  0  0  0  0  0
    4.3874   -2.7554    0.0000 O   0  0  0  0  0  0  0  0  0  0  0  0
    6.3194   -1.6307    0.0000 C   0  0  0  0  0  0  0  0  0  0  0  0
    3.4714   -3.8932    0.0000 C   0  0  0  0  0  0  0  0  0  0  0  0
    3.8352   -6.0233    0.0000 O   0  0  0  0  0  0  0  0  0  0  0  0
    5.7165   -1.2737    0.0000 C   0  0  0  0  0  0  0  0  0  0  0  0
    7.0033   -1.3353    0.0000 C   0  0  0  0  0  0  0  0  0  0  0  0
    5.7128   -0.5710    0.0000 O   0  0  0  0  0  0  0  0  0  0  0  0
  2  5  1  0  0  0  0
  5  6  1  0  0  0  0
  6  7  1  0  0  0  0
  7  8  1  0  0  0  0
  5  9  2  0  0  0  0
  5 10  1  0  0  0  0
  7 11  2  0  0  0  0
  7 12  1  0  0  0  0
  1 13  1  0  0  0  0
  1  2  1  0  0  0  0
  1  3  2  0  0  0  0
  1  4  1  0  0  0  0
 14 15  1  1  0  0  0
 14 16  1  0  0  0  0
 14 17  1  0  0  0  0
 15 18  1  0  0  0  0
 15 19  1  0  0  0  0
 16 20  1  0  0  0  0
 17 21  1  0  0  0  0
 18 22  1  0  0  0  0
 18 23  2  0  0  0  0
 19 24  2  0  0  0  0
 20 25  1  1  0  0  0
 21 26  1  6  0  0  0
 22 27  1  0  0  0  0
 24 28  1  0  0  0  0
 25 13  1  0  0  0  0
 27 29  2  0  0  0  0
 20 21  1  0  0  0  0
 24 27  1  0  0  0  0
M  END

$$$$
Uridine monophosphate
  Marvin  10040516092D

 21 22  0  0  0  0            999 V2000
    1.5205   -0.9475    0.0000 C   0  0  2  0  0  0  0  0  0  0  0  0
    1.5587    0.7869    0.0000 N   0  0  0  0  0  0  0  0  0  0  0  0
    0.5234   -0.3935    0.0000 O   0  0  0  0  0  0  0  0  0  0  0  0
    1.1346   -1.7038    0.0000 C   0  0  1  0  0  0  0  0  0  0  0  0
    0.8634    1.1881    0.0000 C   0  0  0  0  0  0  0  0  0  0  0  0
    2.2501    1.1844    0.0000 C   0  0  0  0  0  0  0  0  0  0  0  0
   -0.4738   -0.9475    0.0000 C   0  0  1  0  0  0  0  0  0  0  0  0
   -0.0994   -1.7038    0.0000 C   0  0  1  0  0  0  0  0  0  0  0  0
    1.3447   -2.3533    0.0000 O   0  0  0  0  0  0  0  0  0  0  0  0
    0.8634    1.9866    0.0000 N   0  0  0  0  0  0  0  0  0  0  0  0
    0.1757    0.7869    0.0000 O   0  0  0  0  0  0  0  0  0  0  0  0
    2.2464    1.9904    0.0000 C   0  0  0  0  0  0  0  0  0  0  0  0
   -1.0621   -0.4470    0.0000 C   0  0  0  0  0  0  0  0  0  0  0  0
   -0.3706   -2.3533    0.0000 O   0  0  0  0  0  0  0  0  0  0  0  0
    1.5587    2.3878    0.0000 C   0  0  0  0  0  0  0  0  0  0  0  0
   -1.9101   -0.8061    0.0000 O   0  0  0  0  0  0  0  0  0  0  0  0
    1.5548    3.1823    0.0000 O   0  0  0  0  0  0  0  0  0  0  0  0
   -2.7162   -0.3401    0.0000 P   0  0  0  0  0  0  0  0  0  0  0  0
   -3.5224   -0.8061    0.0000 O   0  0  0  0  0  0  0  0  0  0  0  0
   -2.7201   -1.2722    0.0000 O   0  0  0  0  0  0  0  0  0  0  0  0
   -2.7201    0.5883    0.0000 O   0  0  0  0  0  0  0  0  0  0  0  0
  1  2  1  1  0  0  0
  1  3  1  0  0  0  0
  1  4  1  0  0  0  0
  2  5  1  0  0  0  0
  2  6  1  0  0  0  0
  3  7  1  0  0  0  0
  4  8  1  0  0  0  0
  4  9  1  6  0  0  0
  5 10  1  0  0  0  0
  5 11  2  0  0  0  0
  6 12  2  0  0  0  0
  7 13  1  1  0  0  0
  8 14  1  6  0  0  0
 10 15  1  0  0  0  0
 13 16  1  0  0  0  0
 15 17  2  0  0  0  0
 16 18  1  0  0  0  0
 18 19  1  0  0  0  0
 18 20  1  0  0  0  0
 18 21  2  0  0  0  0
  7  8  1  0  0  0  0
 12 15  1  0  0  0  0
M  END

$$$$
Uridine diphosphate
  Marvin  10040516102D

 25 26  0  0  0  0            999 V2000
    2.1921   -0.8552    0.0000 C   0  0  2  0  0  0  0  0  0  0  0  0
    2.2294    0.8440    0.0000 N   0  0  0  0  0  0  0  0  0  0  0  0
    1.2212   -0.3138    0.0000 O   0  0  0  0  0  0  0  0  0  0  0  0
    1.8150   -1.5946    0.0000 C   0  0  1  0  0  0  0  0  0  0  0  0
    1.5498    1.2323    0.0000 C   0  0  0  0  0  0  0  0  0  0  0  0
    2.9055    1.2286    0.0000 C   0  0  0  0  0  0  0  0  0  0  0  0
    0.2427   -0.8552    0.0000 C   0  0  1  0  0  0  0  0  0  0  0  0
    0.6088   -1.5946    0.0000 C   0  0  1  0  0  0  0  0  0  0  0  0
    2.0203   -2.2294    0.0000 O   0  0  0  0  0  0  0  0  0  0  0  0
    1.5498    2.0167    0.0000 N   0  0  0  0  0  0  0  0  0  0  0  0
    0.8775    0.8440    0.0000 O   0  0  0  0  0  0  0  0  0  0  0  0
    2.9016    2.0203    0.0000 C   0  0  0  0  0  0  0  0  0  0  0  0
   -0.3324   -0.3623    0.0000 C   0  0  0  0  0  0  0  0  0  0  0  0
    0.3435   -2.2294    0.0000 O   0  0  0  0  0  0  0  0  0  0  0  0
    2.2294    2.4050    0.0000 C   0  0  0  0  0  0  0  0  0  0  0  0
   -1.1614   -0.7171    0.0000 O   0  0  0  0  0  0  0  0  0  0  0  0
    2.2257    3.1855    0.0000 O   0  0  0  0  0  0  0  0  0  0  0  0
   -1.9494   -0.2614    0.0000 P   0  0  3  0  0  0  0  0  0  0  0  0
   -2.7374   -0.7171    0.0000 O   0  0  0  0  0  0  0  0  0  0  0  0
   -1.9530   -1.1727    0.0000 O   0  0  0  0  0  0  0  0  0  0  0  0
   -1.9530    0.6498    0.0000 O   0  0  0  0  0  0  0  0  0  0  0  0
   -3.5141   -0.2689    0.0000 P   0  0  0  0  0  0  0  0  0  0  0  0
   -4.2872   -0.7095    0.0000 O   0  0  0  0  0  0  0  0  0  0  0  0
   -3.5179   -1.1614    0.0000 O   0  0  0  0  0  0  0  0  0  0  0  0
   -3.5179    0.6237    0.0000 O   0  0  0  0  0  0  0  0  0  0  0  0
  1  2  1  1  0  0  0
  1  3  1  0  0  0  0
  1  4  1  0  0  0  0
  2  5  1  0  0  0  0
  2  6  1  0  0  0  0
  3  7  1  0  0  0  0
  4  8  1  0  0  0  0
  4  9  1  6  0  0  0
  5 10  1  0  0  0  0
  5 11  2  0  0  0  0
  6 12  2  0  0  0  0
  7 13  1  1  0  0  0
  8 14  1  6  0  0  0
 10 15  1  0  0  0  0
 13 16  1  0  0  0  0
 15 17  2  0  0  0  0
 16 18  1  0  0  0  0
 18 19  1  0  0  0  0
 18 20  1  0  0  0  0
 18 21  2  0  0  0  0
 19 22  1  0  0  0  0
 22 23  1  0  0  0  0
 22 24  1  0  0  0  0
 22 25  2  0  0  0  0
  7  8  1  0  0  0  0
 12 15  1  0  0  0  0
M  END

$$$$
Uridine triphosphate
  Marvin  10040516102D

 29 30  0  0  0  0            999 V2000
    2.9117   -0.8005    0.0000 C   0  0  2  0  0  0  0  0  0  0  0  0
    2.9488    0.8936    0.0000 N   0  0  0  0  0  0  0  0  0  0  0  0
    1.9436   -0.2607    0.0000 O   0  0  0  0  0  0  0  0  0  0  0  0
    2.5356   -1.5376    0.0000 C   0  0  1  0  0  0  0  0  0  0  0  0
    2.2711    1.2808    0.0000 C   0  0  0  0  0  0  0  0  0  0  0  0
    3.6228    1.2771    0.0000 C   0  0  0  0  0  0  0  0  0  0  0  0
    0.9681   -0.8005    0.0000 C   0  0  1  0  0  0  0  0  0  0  0  0
    1.3329   -1.5376    0.0000 C   0  0  1  0  0  0  0  0  0  0  0  0
    2.7403   -2.1706    0.0000 O   0  0  0  0  0  0  0  0  0  0  0  0
    2.2711    2.0626    0.0000 N   0  0  0  0  0  0  0  0  0  0  0  0
    1.6011    0.8936    0.0000 O   0  0  0  0  0  0  0  0  0  0  0  0
    3.6190    2.0664    0.0000 C   0  0  0  0  0  0  0  0  0  0  0  0
    0.3946   -0.3090    0.0000 C   0  0  0  0  0  0  0  0  0  0  0  0
    1.0687   -2.1706    0.0000 O   0  0  0  0  0  0  0  0  0  0  0  0
    2.9488    2.4500    0.0000 C   0  0  0  0  0  0  0  0  0  0  0  0
   -0.4319   -0.6627    0.0000 O   0  0  0  0  0  0  0  0  0  0  0  0
    2.9452    3.2281    0.0000 O   0  0  0  0  0  0  0  0  0  0  0  0
   -1.2175   -0.2085    0.0000 P   0  0  3  0  0  0  0  0  0  0  0  0
   -2.0031   -0.6627    0.0000 O   0  0  0  0  0  0  0  0  0  0  0  0
   -1.2212   -1.1170    0.0000 O   0  0  0  0  0  0  0  0  0  0  0  0
   -1.2212    0.7000    0.0000 O   0  0  0  0  0  0  0  0  0  0  0  0
   -2.7776   -0.2160    0.0000 P   0  0  3  0  0  0  0  0  0  0  0  0
   -3.5483   -0.6553    0.0000 O   0  0  0  0  0  0  0  0  0  0  0  0
   -2.7813   -1.1058    0.0000 O   0  0  0  0  0  0  0  0  0  0  0  0
   -2.7813    0.6739    0.0000 O   0  0  0  0  0  0  0  0  0  0  0  0
   -4.3264   -0.2085    0.0000 P   0  0  0  0  0  0  0  0  0  0  0  0
   -5.1009   -0.6516    0.0000 O   0  0  0  0  0  0  0  0  0  0  0  0
   -4.3339   -1.1021    0.0000 O   0  0  0  0  0  0  0  0  0  0  0  0
   -4.3339    0.6814    0.0000 O   0  0  0  0  0  0  0  0  0  0  0  0
  1  2  1  1  0  0  0
  1  3  1  0  0  0  0
  1  4  1  0  0  0  0
  2  5  1  0  0  0  0
  2  6  1  0  0  0  0
  3  7  1  0  0  0  0
  4  8  1  0  0  0  0
  4  9  1  6  0  0  0
  5 10  1  0  0  0  0
  5 11  2  0  0  0  0
  6 12  2  0  0  0  0
  7 13  1  1  0  0  0
  8 14  1  6  0  0  0
 10 15  1  0  0  0  0
 13 16  1  0  0  0  0
 15 17  2  0  0  0  0
 16 18  1  0  0  0  0
 18 19  1  0  0  0  0
 18 20  1  0  0  0  0
 18 21  2  0  0  0  0
 19 22  1  0  0  0  0
 22 23  1  0  0  0  0
 22 24  1  0  0  0  0
 22 25  2  0  0  0  0
 23 26  1  0  0  0  0
 26 27  1  0  0  0  0
 26 28  1  0  0  0  0
 26 29  2  0  0  0  0
  7  8  1  0  0  0  0
 12 15  1  0  0  0  0
M  END

$$$$
Cytidine monophosphate
  Marvin  10040516112D

 21 22  0  0  0  0            999 V2000
    1.5205   -0.9475    0.0000 C   0  0  2  0  0  0  0  0  0  0  0  0
    1.5587    0.7869    0.0000 N   0  0  0  0  0  0  0  0  0  0  0  0
    0.5234   -0.3935    0.0000 O   0  0  0  0  0  0  0  0  0  0  0  0
    1.1346   -1.7038    0.0000 C   0  0  1  0  0  0  0  0  0  0  0  0
    0.8634    1.1881    0.0000 C   0  0  0  0  0  0  0  0  0  0  0  0
    2.2501    1.1844    0.0000 C   0  0  0  0  0  0  0  0  0  0  0  0
   -0.4738   -0.9475    0.0000 C   0  0  1  0  0  0  0  0  0  0  0  0
   -0.0994   -1.7038    0.0000 C   0  0  1  0  0  0  0  0  0  0  0  0
    1.3447   -2.3533    0.0000 O   0  0  0  0  0  0  0  0  0  0  0  0
    0.8634    1.9866    0.0000 N   0  0  0  0  0  0  0  0  0  0  0  0
    0.1757    0.7869    0.0000 O   0  0  0  0  0  0  0  0  0  0  0  0
    2.2464    1.9904    0.0000 C   0  0  0  0  0  0  0  0  0  0  0  0
   -1.0621   -0.4470    0.0000 C   0  0  0  0  0  0  0  0  0  0  0  0
   -0.3706   -2.3533    0.0000 O   0  0  0  0  0  0  0  0  0  0  0  0
    1.5587    2.3878    0.0000 C   0  0  0  0  0  0  0  0  0  0  0  0
   -1.9101   -0.8061    0.0000 O   0  0  0  0  0  0  0  0  0  0  0  0
    1.5548    3.1823    0.0000 N   0  0  0  0  0  0  0  0  0  0  0  0
   -2.7162   -0.3401    0.0000 P   0  0  0  0  0  0  0  0  0  0  0  0
   -3.5224   -0.8061    0.0000 O   0  0  0  0  0  0  0  0  0  0  0  0
   -2.7201   -1.2722    0.0000 O   0  0  0  0  0  0  0  0  0  0  0  0
   -2.7201    0.5883    0.0000 O   0  0  0  0  0  0  0  0  0  0  0  0
  1  2  1  1  0  0  0
  1  3  1  0  0  0  0
  1  4  1  0  0  0  0
  2  5  1  0  0  0  0
  2  6  1  0  0  0  0
  3  7  1  0  0  0  0
  4  8  1  0  0  0  0
  4  9  1  6  0  0  0
  5 10  1  0  0  0  0
  5 11  2  0  0  0  0
  6 12  2  0  0  0  0
  7 13  1  1  0  0  0
  8 14  1  6  0  0  0
 10 15  2  0  0  0  0
 13 16  1  0  0  0  0
 15 17  1  0  0  0  0
 16 18  1  0  0  0  0
 18 19  1  0  0  0  0
 18 20  1  0  0  0  0
 18 21  2  0  0  0  0
  7  8  1  0  0  0  0
 12 15  1  0  0  0  0
M  END

$$$$
Cytidine diphosphate
  Marvin  10040516272D

 25 26  0  0  0  0            999 V2000
    2.1921   -0.8552    0.0000 C   0  0  2  0  0  0  0  0  0  0  0  0
    2.2294    0.8440    0.0000 N   0  0  0  0  0  0  0  0  0  0  0  0
    1.2212   -0.3138    0.0000 O   0  0  0  0  0  0  0  0  0  0  0  0
    1.8150   -1.5946    0.0000 C   0  0  1  0  0  0  0  0  0  0  0  0
    1.5498    1.2323    0.0000 C   0  0  0  0  0  0  0  0  0  0  0  0
    2.9055    1.2286    0.0000 C   0  0  0  0  0  0  0  0  0  0  0  0
    0.2427   -0.8552    0.0000 C   0  0  1  0  0  0  0  0  0  0  0  0
    0.6088   -1.5946    0.0000 C   0  0  1  0  0  0  0  0  0  0  0  0
    2.0203   -2.2294    0.0000 O   0  0  0  0  0  0  0  0  0  0  0  0
    1.5498    2.0167    0.0000 N   0  0  0  0  0  0  0  0  0  0  0  0
    0.8775    0.8440    0.0000 O   0  0  0  0  0  0  0  0  0  0  0  0
    2.9016    2.0203    0.0000 C   0  0  0  0  0  0  0  0  0  0  0  0
   -0.3324   -0.3623    0.0000 C   0  0  0  0  0  0  0  0  0  0  0  0
    0.3435   -2.2294    0.0000 O   0  0  0  0  0  0  0  0  0  0  0  0
    2.2294    2.4050    0.0000 C   0  0  0  0  0  0  0  0  0  0  0  0
   -1.1614   -0.7171    0.0000 O   0  0  0  0  0  0  0  0  0  0  0  0
    2.2257    3.1855    0.0000 N   0  0  0  0  0  0  0  0  0  0  0  0
   -1.9494   -0.2614    0.0000 P   0  0  3  0  0  0  0  0  0  0  0  0
   -2.7374   -0.7171    0.0000 O   0  0  0  0  0  0  0  0  0  0  0  0
   -1.9530   -1.1727    0.0000 O   0  0  0  0  0  0  0  0  0  0  0  0
   -1.9530    0.6498    0.0000 O   0  0  0  0  0  0  0  0  0  0  0  0
   -3.5141   -0.2689    0.0000 P   0  0  0  0  0  0  0  0  0  0  0  0
   -4.2872   -0.7095    0.0000 O   0  0  0  0  0  0  0  0  0  0  0  0
   -3.5179   -1.1614    0.0000 O   0  0  0  0  0  0  0  0  0  0  0  0
   -3.5179    0.6237    0.0000 O   0  0  0  0  0  0  0  0  0  0  0  0
  1  2  1  1  0  0  0
  1  3  1  0  0  0  0
  1  4  1  0  0  0  0
  2  5  1  0  0  0  0
  2  6  1  0  0  0  0
  3  7  1  0  0  0  0
  4  8  1  0  0  0  0
  4  9  1  6  0  0  0
  5 10  1  0  0  0  0
  5 11  2  0  0  0  0
  6 12  2  0  0  0  0
  7 13  1  1  0  0  0
  8 14  1  6  0  0  0
 10 15  2  0  0  0  0
 13 16  1  0  0  0  0
 15 17  1  0  0  0  0
 16 18  1  0  0  0  0
 18 19  1  0  0  0  0
 18 20  1  0  0  0  0
 18 21  2  0  0  0  0
 19 22  1  0  0  0  0
 22 23  1  0  0  0  0
 22 24  1  0  0  0  0
 22 25  2  0  0  0  0
  7  8  1  0  0  0  0
 12 15  1  0  0  0  0
M  END

$$$$
Cytidine triphosphate
  Marvin  10040516272D

 29 30  0  0  0  0            999 V2000
    2.9117   -0.8005    0.0000 C   0  0  2  0  0  0  0  0  0  0  0  0
    2.9488    0.8936    0.0000 N   0  0  0  0  0  0  0  0  0  0  0  0
    1.9436   -0.2607    0.0000 O   0  0  0  0  0  0  0  0  0  0  0  0
    2.5356   -1.5376    0.0000 C   0  0  1  0  0  0  0  0  0  0  0  0
    2.2711    1.2808    0.0000 C   0  0  0  0  0  0  0  0  0  0  0  0
    3.6228    1.2771    0.0000 C   0  0  0  0  0  0  0  0  0  0  0  0
    0.9681   -0.8005    0.0000 C   0  0  1  0  0  0  0  0  0  0  0  0
    1.3329   -1.5376    0.0000 C   0  0  1  0  0  0  0  0  0  0  0  0
    2.7403   -2.1706    0.0000 O   0  0  0  0  0  0  0  0  0  0  0  0
    2.2711    2.0626    0.0000 N   0  0  0  0  0  0  0  0  0  0  0  0
    1.6011    0.8936    0.0000 O   0  0  0  0  0  0  0  0  0  0  0  0
    3.6190    2.0664    0.0000 C   0  0  0  0  0  0  0  0  0  0  0  0
    0.3946   -0.3090    0.0000 C   0  0  0  0  0  0  0  0  0  0  0  0
    1.0687   -2.1706    0.0000 O   0  0  0  0  0  0  0  0  0  0  0  0
    2.9488    2.4500    0.0000 C   0  0  0  0  0  0  0  0  0  0  0  0
   -0.4319   -0.6627    0.0000 O   0  0  0  0  0  0  0  0  0  0  0  0
    2.9452    3.2281    0.0000 N   0  0  0  0  0  0  0  0  0  0  0  0
   -1.2175   -0.2085    0.0000 P   0  0  3  0  0  0  0  0  0  0  0  0
   -2.0031   -0.6627    0.0000 O   0  0  0  0  0  0  0  0  0  0  0  0
   -1.2212   -1.1170    0.0000 O   0  0  0  0  0  0  0  0  0  0  0  0
   -1.2212    0.7000    0.0000 O   0  0  0  0  0  0  0  0  0  0  0  0
   -2.7776   -0.2160    0.0000 P   0  0  3  0  0  0  0  0  0  0  0  0
   -3.5483   -0.6553    0.0000 O   0  0  0  0  0  0  0  0  0  0  0  0
   -2.7813   -1.1058    0.0000 O   0  0  0  0  0  0  0  0  0  0  0  0
   -2.7813    0.6739    0.0000 O   0  0  0  0  0  0  0  0  0  0  0  0
   -4.3264   -0.2085    0.0000 P   0  0  0  0  0  0  0  0  0  0  0  0
   -5.1009   -0.6516    0.0000 O   0  0  0  0  0  0  0  0  0  0  0  0
   -4.3339   -1.1021    0.0000 O   0  0  0  0  0  0  0  0  0  0  0  0
   -4.3339    0.6814    0.0000 O   0  0  0  0  0  0  0  0  0  0  0  0
  1  2  1  1  0  0  0
  1  3  1  0  0  0  0
  1  4  1  0  0  0  0
  2  5  1  0  0  0  0
  2  6  1  0  0  0  0
  3  7  1  0  0  0  0
  4  8  1  0  0  0  0
  4  9  1  6  0  0  0
  5 10  1  0  0  0  0
  5 11  2  0  0  0  0
  6 12  2  0  0  0  0
  7 13  1  1  0  0  0
  8 14  1  6  0  0  0
 10 15  2  0  0  0  0
 13 16  1  0  0  0  0
 15 17  1  0  0  0  0
 16 18  1  0  0  0  0
 18 19  1  0  0  0  0
 18 20  1  0  0  0  0
 18 21  2  0  0  0  0
 19 22  1  0  0  0  0
 22 23  1  0  0  0  0
 22 24  1  0  0  0  0
 22 25  2  0  0  0  0
 23 26  1  0  0  0  0
 26 27  1  0  0  0  0
 26 28  1  0  0  0  0
 26 29  2  0  0  0  0
  7  8  1  0  0  0  0
 12 15  1  0  0  0  0
M  END

$$$$
Deoxyadenosine monophosphate
  Marvin  10040516412D

 22 24  0  0  0  0            999 V2000
    1.7233    0.5614    0.0000 N   0  0  0  0  0  0  0  0  0  0  0  0
    0.9913    0.8102    0.0000 C   0  0  0  0  0  0  0  0  0  0  0  0
    1.7233   -1.3609    0.0000 C   0  0  2  0  0  0  0  0  0  0  0  0
    2.1498    1.1868    0.0000 C   0  0  0  0  0  0  0  0  0  0  0  0
    0.9913    1.5563    0.0000 C   0  0  0  0  0  0  0  0  0  0  0  0
    0.3518    0.4335    0.0000 N   0  0  0  0  0  0  0  0  0  0  0  0
    0.7000   -0.7817    0.0000 O   0  0  0  0  0  0  0  0  0  0  0  0
    1.3147   -2.1462    0.0000 C   0  0  0  0  0  0  0  0  0  0  0  0
    1.7055    1.7979    0.0000 N   0  0  0  0  0  0  0  0  0  0  0  0
    0.3518    1.9436    0.0000 C   0  0  0  0  0  0  0  0  0  0  0  0
   -0.3127    0.8102    0.0000 C   0  0  0  0  0  0  0  0  0  0  0  0
   -0.3803   -1.3609    0.0000 C   0  0  1  0  0  0  0  0  0  0  0  0
    0.0461   -2.1462    0.0000 C   0  0  1  0  0  0  0  0  0  0  0  0
   -0.3127    1.5563    0.0000 N   0  0  0  0  0  0  0  0  0  0  0  0
    0.3518    2.7005    0.0000 N   0  0  0  0  0  0  0  0  0  0  0  0
   -0.4761   -0.5650    0.0000 C   0  0  0  0  0  0  0  0  0  0  0  0
   -0.3766   -2.8818    0.0000 O   0  0  0  0  0  0  0  0  0  0  0  0
   -1.2294   -0.0035    0.0000 O   0  0  0  0  0  0  0  0  0  0  0  0
   -2.1462   -0.4335    0.0000 P   0  0  0  0  0  0  0  0  0  0  0  0
   -2.8852   -0.8528    0.0000 O   0  0  0  0  0  0  0  0  0  0  0  0
   -2.4019    0.4975    0.0000 O   0  0  0  0  0  0  0  0  0  0  0  0
   -1.8583   -1.3040    0.0000 O   0  0  0  0  0  0  0  0  0  0  0  0
  1  2  1  0  0  0  0
  3  1  1  1  0  0  0
  1  4  1  0  0  0  0
  2  5  2  0  0  0  0
  2  6  1  0  0  0  0
  3  7  1  0  0  0  0
  3  8  1  0  0  0  0
  4  9  2  0  0  0  0
  5 10  1  0  0  0  0
  6 11  2  0  0  0  0
  7 12  1  0  0  0  0
  8 13  1  0  0  0  0
 10 14  2  0  0  0  0
 10 15  1  0  0  0  0
 12 16  1  1  0  0  0
 13 17  1  6  0  0  0
 16 18  1  0  0  0  0
 18 19  1  0  0  0  0
 19 20  1  0  0  0  0
 19 21  1  0  0  0  0
 19 22  2  0  0  0  0
  5  9  1  0  0  0  0
 11 14  1  0  0  0  0
 12 13  1  0  0  0  0
M  END

$$$$
Deoxyadenosine diphosphate
  Marvin  10040516432D

 26 28  0  0  0  0            999 V2000
    2.2952   -2.5963    0.0000 C   0  0  0  0  0  0  0  0  0  0  0  0
    3.0798   -2.8512    0.0000 C   0  0  2  0  0  0  0  0  0  0  0  0
    3.3348   -3.6359    0.0000 C   0  0  1  0  0  0  0  0  0  0  0  0
    2.8499   -4.3033    0.0000 O   0  0  0  0  0  0  0  0  0  0  0  0
    4.1598   -3.6359    0.0000 C   0  0  0  0  0  0  0  0  0  0  0  0
    4.4147   -2.8512    0.0000 C   0  0  1  0  0  0  0  0  0  0  0  0
    3.7473   -2.3663    0.0000 O   0  0  0  0  0  0  0  0  0  0  0  0
    5.1993   -2.5963    0.0000 N   0  0  0  0  0  0  0  0  0  0  0  0
    5.8668   -3.0812    0.0000 C   0  0  0  0  0  0  0  0  0  0  0  0
    6.5342   -2.5963    0.0000 N   0  0  0  0  0  0  0  0  0  0  0  0
    6.2793   -1.8116    0.0000 C   0  0  0  0  0  0  0  0  0  0  0  0
    6.6918   -1.0972    0.0000 C   0  0  0  0  0  0  0  0  0  0  0  0
    7.5168   -1.0972    0.0000 N   0  0  0  0  0  0  0  0  0  0  0  0
    6.2793   -0.3827    0.0000 N   0  0  0  0  0  0  0  0  0  0  0  0
    5.4543   -0.3827    0.0000 C   0  0  0  0  0  0  0  0  0  0  0  0
    5.0418   -1.0972    0.0000 N   0  0  0  0  0  0  0  0  0  0  0  0
    5.4543   -1.8116    0.0000 C   0  0  0  0  0  0  0  0  0  0  0  0
    0.5452   -1.5858    0.0000 P   0  0  0  0  0  0  0  0  0  0  0  0
   -0.0382   -1.0025    0.0000 O   0  0  0  0  0  0  0  0  0  0  0  0
   -0.0382   -2.1692    0.0000 O   0  0  0  0  0  0  0  0  0  0  0  0
    1.1285   -1.0025    0.0000 O   0  0  0  0  0  0  0  0  0  0  0  0
    1.1285   -2.1692    0.0000 O   0  0  0  0  0  0  0  0  0  0  0  0
    0.9150   -2.9661    0.0000 P   0  0  3  0  0  0  0  0  0  0  0  0
    0.7014   -3.7630    0.0000 O   0  0  0  0  0  0  0  0  0  0  0  0
    0.1181   -2.7526    0.0000 O   0  0  0  0  0  0  0  0  0  0  0  0
    1.7118   -3.1796    0.0000 O   0  0  0  0  0  0  0  0  0  0  0  0
  2  1  1  1  0  0  0
  2  3  1  0  0  0  0
  3  4  1  6  0  0  0
  3  5  1  0  0  0  0
  5  6  1  0  0  0  0
  6  7  1  0  0  0  0
  2  7  1  0  0  0  0
  6  8  1  1  0  0  0
  8  9  1  0  0  0  0
  9 10  2  0  0  0  0
 10 11  1  0  0  0  0
 11 12  1  0  0  0  0
 12 13  1  0  0  0  0
 12 14  2  0  0  0  0
 14 15  1  0  0  0  0
 15 16  2  0  0  0  0
 16 17  1  0  0  0  0
 11 17  2  0  0  0  0
  8 17  1  0  0  0  0
 18 19  2  0  0  0  0
 18 20  1  0  0  0  0
 18 21  1  0  0  0  0
 18 22  1  0  0  0  0
 22 23  1  0  0  0  0
 23 24  2  0  0  0  0
 23 25  1  0  0  0  0
 23 26  1  0  0  0  0
  1 26  1  0  0  0  0
M  END

$$$$
Deoxyadenosine triphosphate
  Marvin  10040516452D

 30 32  0  0  0  0            999 V2000
   10.9449   -5.7583    0.0000 N   0  0  0  0  0  0  0  0  0  0  0  0
    9.6847   -5.7583    0.0000 C   0  0  0  0  0  0  0  0  0  0  0  0
   10.9449   -7.9712    0.0000 C   0  0  2  0  0  0  0  0  0  0  0  0
   10.9449   -5.0167    0.0000 C   0  0  0  0  0  0  0  0  0  0  0  0
    9.6847   -5.0014    0.0000 C   0  0  0  0  0  0  0  0  0  0  0  0
    9.0201   -6.1194    0.0000 N   0  0  0  0  0  0  0  0  0  0  0  0
    9.9844   -7.4679    0.0000 O   0  0  0  0  0  0  0  0  0  0  0  0
   10.4723   -8.6320    0.0000 C   0  0  0  0  0  0  0  0  0  0  0  0
   10.2919   -4.6748    0.0000 N   0  0  0  0  0  0  0  0  0  0  0  0
    9.0201   -4.6249    0.0000 C   0  0  0  0  0  0  0  0  0  0  0  0
    8.3747   -5.7583    0.0000 C   0  0  0  0  0  0  0  0  0  0  0  0
    9.0393   -7.9251    0.0000 C   0  0  1  0  0  0  0  0  0  0  0  0
    9.5311   -8.6320    0.0000 C   0  0  1  0  0  0  0  0  0  0  0  0
    8.3747   -5.0014    0.0000 N   0  0  0  0  0  0  0  0  0  0  0  0
    9.0201   -3.9717    0.0000 N   0  0  0  0  0  0  0  0  0  0  0  0
    8.5889   -7.3178    0.0000 C   0  0  0  0  0  0  0  0  0  0  0  0
    9.0901   -9.4637    0.0000 O   0  0  0  0  0  0  0  0  0  0  0  0
    7.8206   -7.3178    0.0000 O   0  0  0  0  0  0  0  0  0  0  0  0
    6.9407   -7.3178    0.0000 P   0  0  3  0  0  0  0  0  0  0  0  0
    6.0186   -7.3178    0.0000 O   0  0  0  0  0  0  0  0  0  0  0  0
    6.9407   -6.3265    0.0000 O   0  0  0  0  0  0  0  0  0  0  0  0
    6.9407   -8.2321    0.0000 O   0  0  0  0  0  0  0  0  0  0  0  0
    4.8584   -7.3178    0.0000 P   0  0  3  0  0  0  0  0  0  0  0  0
    3.8326   -7.3178    0.0000 O   0  0  0  0  0  0  0  0  0  0  0  0
    4.8584   -6.2689    0.0000 O   0  0  0  0  0  0  0  0  0  0  0  0
    4.8584   -8.2321    0.0000 O   0  0  0  0  0  0  0  0  0  0  0  0
    2.7914   -7.3178    0.0000 P   0  0  0  0  0  0  0  0  0  0  0  0
    2.7914   -6.3265    0.0000 O   0  0  0  0  0  0  0  0  0  0  0  0
    1.9538   -7.3178    0.0000 O   0  0  0  0  0  0  0  0  0  0  0  0
    2.7914   -8.2975    0.0000 O   0  0  0  0  0  0  0  0  0  0  0  0
  1  2  1  0  0  0  0
  3  1  1  1  0  0  0
  1  4  1  0  0  0  0
  2  5  2  0  0  0  0
  2  6  1  0  0  0  0
  3  7  1  0  0  0  0
  3  8  1  0  0  0  0
  4  9  2  0  0  0  0
  5 10  1  0  0  0  0
  6 11  2  0  0  0  0
  7 12  1  0  0  0  0
  8 13  1  0  0  0  0
 10 14  2  0  0  0  0
 10 15  1  0  0  0  0
 12 16  1  1  0  0  0
 13 17  1  6  0  0  0
 16 18  1  0  0  0  0
 18 19  1  0  0  0  0
 19 20  1  0  0  0  0
 19 21  1  0  0  0  0
 19 22  2  0  0  0  0
 20 23  1  0  0  0  0
 23 24  1  0  0  0  0
 23 25  1  0  0  0  0
 23 26  2  0  0  0  0
 24 27  1  0  0  0  0
 27 28  1  0  0  0  0
 27 29  1  0  0  0  0
 27 30  2  0  0  0  0
  5  9  1  0  0  0  0
 11 14  1  0  0  0  0
 12 13  1  0  0  0  0
M  END

$$$$
Deoxyguanosine monophosphate
  Marvin  10040516502D

 23 25  0  0  0  0            999 V2000
    6.6057   -3.4639    0.0000 C   0  0  0  0  0  0  0  0  0  0  0  0
    7.3182   -3.8730    0.0000 N   0  0  0  0  0  0  0  0  0  0  0  0
    6.6022   -2.6423    0.0000 C   0  0  0  0  0  0  0  0  0  0  0  0
    5.8965   -3.8730    0.0000 N   0  0  0  0  0  0  0  0  0  0  0  0
    7.3250   -5.6729    0.0000 C   0  0  2  0  0  0  0  0  0  0  0  0
    8.0307   -3.4604    0.0000 C   0  0  0  0  0  0  0  0  0  0  0  0
    8.0272   -2.6354    0.0000 N   0  0  0  0  0  0  0  0  0  0  0  0
    5.8965   -2.2366    0.0000 C   0  0  0  0  0  0  0  0  0  0  0  0
    5.1910   -3.4639    0.0000 C   0  0  0  0  0  0  0  0  0  0  0  0
    6.3091   -5.1036    0.0000 O   0  0  0  0  0  0  0  0  0  0  0  0
    6.9295   -6.4467    0.0000 C   0  0  0  0  0  0  0  0  0  0  0  0
    5.1910   -2.6457    0.0000 N   0  0  0  0  0  0  0  0  0  0  0  0
    5.8932   -1.4219    0.0000 O   0  0  0  0  0  0  0  0  0  0  0  0
    4.4853   -3.8695    0.0000 N   0  0  0  0  0  0  0  0  0  0  0  0
    5.2864   -5.6729    0.0000 C   0  0  1  0  0  0  0  0  0  0  0  0
    5.6682   -6.4467    0.0000 C   0  0  1  0  0  0  0  0  0  0  0  0
    4.6830   -5.1582    0.0000 C   0  0  0  0  0  0  0  0  0  0  0  0
    5.3887   -7.1081    0.0000 O   0  0  0  0  0  0  0  0  0  0  0  0
    3.8137   -5.5263    0.0000 O   0  0  0  0  0  0  0  0  0  0  0  0
    2.8711   -5.5238    0.0000 P   0  0  0  0  0  0  0  0  0  0  0  0
    2.8711   -4.5888    0.0000 O   0  0  0  0  0  0  0  0  0  0  0  0
    1.9401   -5.5238    0.0000 O   0  0  0  0  0  0  0  0  0  0  0  0
    2.8711   -6.4507    0.0000 O   0  0  0  0  0  0  0  0  0  0  0  0
  5  2  1  1  0  0  0
  2  6  1  0  0  0  0
  3  7  1  0  0  0  0
  3  8  1  0  0  0  0
  4  9  2  0  0  0  0
  5 10  1  0  0  0  0
  5 11  1  0  0  0  0
  8 12  1  0  0  0  0
  8 13  2  0  0  0  0
  9 14  1  0  0  0  0
 10 15  1  0  0  0  0
 11 16  1  0  0  0  0
 15 17  1  1  0  0  0
 16 18  1  6  0  0  0
 17 19  1  0  0  0  0
  6  7  2  0  0  0  0
  9 12  1  0  0  0  0
 15 16  1  0  0  0  0
 19 20  1  0  0  0  0
  1  2  1  0  0  0  0
 20 21  2  0  0  0  0
  1  3  2  0  0  0  0
 20 22  1  0  0  0  0
  1  4  1  0  0  0  0
 20 23  1  0  0  0  0
M  END

$$$$
Deoxyguanosine diphosphate
  Marvin  10040517022D

 27 29  0  0  0  0            999 V2000
    6.8242   -6.2068    0.0000 C   0  0  0  0  0  0  0  0  0  0  0  0
    6.0037   -6.2068    0.0000 C   0  0  1  0  0  0  0  0  0  0  0  0
    5.7469   -5.4262    0.0000 C   0  0  2  0  0  0  0  0  0  0  0  0
    6.4117   -4.9419    0.0000 O   0  0  0  0  0  0  0  0  0  0  0  0
    7.0763   -5.4262    0.0000 C   0  0  1  0  0  0  0  0  0  0  0  0
   10.6666   -4.1750    0.0000 N   0  0  0  0  0  0  0  0  0  0  0  0
   10.6666   -5.0000    0.0000 C   0  0  0  0  0  0  0  0  0  0  0  0
    9.9554   -5.4126    0.0000 N   0  0  0  0  0  0  0  0  0  0  0  0
    9.9554   -3.7625    0.0000 C   0  0  0  0  0  0  0  0  0  0  0  0
    9.2442   -4.1750    0.0000 C   0  0  0  0  0  0  0  0  0  0  0  0
    9.2431   -5.0000    0.0000 C   0  0  0  0  0  0  0  0  0  0  0  0
    7.8174   -4.9983    0.0000 N   0  0  0  0  0  0  0  0  0  0  0  0
    7.8185   -4.1732    0.0000 C   0  0  0  0  0  0  0  0  0  0  0  0
    8.5342   -3.7593    0.0000 N   0  0  0  0  0  0  0  0  0  0  0  0
    9.9639   -2.9013    0.0000 O   0  0  0  0  0  0  0  0  0  0  0  0
   11.3947   -5.4614    0.0000 N   0  0  0  0  0  0  0  0  0  0  0  0
    5.3990   -6.8088    0.0000 O   0  0  0  0  0  0  0  0  0  0  0  0
    5.0092   -4.9910    0.0000 C   0  0  0  0  0  0  0  0  0  0  0  0
    4.2657   -5.4216    0.0000 O   0  0  0  0  0  0  0  0  0  0  0  0
    3.5223   -4.9864    0.0000 P   0  0  0  0  0  0  0  0  0  0  0  0
    2.7789   -4.5558    0.0000 O   0  0  0  0  0  0  0  0  0  0  0  0
    3.0917   -5.7300    0.0000 O   0  0  0  0  0  0  0  0  0  0  0  0
    3.9529   -4.2385    0.0000 O   0  0  0  0  0  0  0  0  0  0  0  0
    5.8342   -7.5523    0.0000 P   0  0  0  0  0  0  0  0  0  0  0  0
    6.2648   -8.2957    0.0000 O   0  0  0  0  0  0  0  0  0  0  0  0
    5.0908   -7.9829    0.0000 O   0  0  0  0  0  0  0  0  0  0  0  0
    6.6683   -7.3301    0.0000 O   0  0  0  0  0  0  0  0  0  0  0  0
 13 14  2  0  0  0  0
 14 10  1  0  0  0  0
 11 12  1  0  0  0  0
  5 12  1  1  0  0  0
  2  3  1  0  0  0  0
  9 15  2  0  0  0  0
  3  4  1  0  0  0  0
  7 16  1  0  0  0  0
  6  9  1  0  0  0  0
  2 17  1  6  0  0  0
  7  8  1  0  0  0  0
  3 18  1  1  0  0  0
  8 11  1  0  0  0  0
 18 19  1  0  0  0  0
 10  9  1  0  0  0  0
 19 20  1  0  0  0  0
 10 11  2  0  0  0  0
 20 21  2  0  0  0  0
  4  5  1  0  0  0  0
 20 22  1  0  0  0  0
  5  1  1  0  0  0  0
 20 23  1  0  0  0  0
  6  7  2  0  0  0  0
 17 24  1  0  0  0  0
  1  2  1  0  0  0  0
 24 25  2  0  0  0  0
 24 26  1  0  0  0  0
 12 13  1  0  0  0  0
 24 27  1  0  0  0  0
M  END

$$$$
Deoxyguanosine triphosphate
  Marvin  10040517032D

 31 33  0  0  0  0            999 V2000
    6.3159   -3.3119    0.0000 C   0  0  0  0  0  0  0  0  0  0  0  0
    6.9971   -3.7031    0.0000 N   0  0  0  0  0  0  0  0  0  0  0  0
    6.3126   -2.5263    0.0000 C   0  0  0  0  0  0  0  0  0  0  0  0
    5.6379   -3.7031    0.0000 N   0  0  0  0  0  0  0  0  0  0  0  0
    7.0037   -5.4241    0.0000 C   0  0  2  0  0  0  0  0  0  0  0  0
    7.6784   -3.3086    0.0000 C   0  0  0  0  0  0  0  0  0  0  0  0
    7.6751   -2.5198    0.0000 N   0  0  0  0  0  0  0  0  0  0  0  0
    5.6379   -2.1385    0.0000 C   0  0  0  0  0  0  0  0  0  0  0  0
    4.9633   -3.3119    0.0000 C   0  0  0  0  0  0  0  0  0  0  0  0
    6.0323   -4.8797    0.0000 O   0  0  0  0  0  0  0  0  0  0  0  0
    6.6256   -6.1639    0.0000 C   0  0  0  0  0  0  0  0  0  0  0  0
    4.9633   -2.5297    0.0000 N   0  0  0  0  0  0  0  0  0  0  0  0
    5.6347   -1.3595    0.0000 O   0  0  0  0  0  0  0  0  0  0  0  0
    4.2886   -3.6998    0.0000 N   0  0  0  0  0  0  0  0  0  0  0  0
    5.0545   -5.4241    0.0000 C   0  0  1  0  0  0  0  0  0  0  0  0
    5.4195   -6.1639    0.0000 C   0  0  1  0  0  0  0  0  0  0  0  0
    4.4776   -4.9319    0.0000 C   0  0  0  0  0  0  0  0  0  0  0  0
    5.1523   -6.7963    0.0000 O   0  0  0  0  0  0  0  0  0  0  0  0
    3.6464   -5.2839    0.0000 O   0  0  0  0  0  0  0  0  0  0  0  0
    2.7372   -5.2776    0.0000 P   0  0  3  0  0  0  0  0  0  0  0  0
    1.8274   -5.2776    0.0000 O   0  0  0  0  0  0  0  0  0  0  0  0
    0.9176   -5.2776    0.0000 P   0  0  3  0  0  0  0  0  0  0  0  0
    0.0078   -5.2737    0.0000 O   0  0  0  0  0  0  0  0  0  0  0  0
   -0.9058   -5.2697    0.0000 P   0  0  0  0  0  0  0  0  0  0  0  0
   -1.8236   -5.2697    0.0000 O   0  0  0  0  0  0  0  0  0  0  0  0
    2.7334   -4.3678    0.0000 O   0  0  0  0  0  0  0  0  0  0  0  0
    2.7334   -6.1874    0.0000 O   0  0  0  0  0  0  0  0  0  0  0  0
    0.9138   -4.3639    0.0000 O   0  0  0  0  0  0  0  0  0  0  0  0
    0.9138   -6.1913    0.0000 O   0  0  0  0  0  0  0  0  0  0  0  0
   -0.9098   -4.3521    0.0000 O   0  0  0  0  0  0  0  0  0  0  0  0
   -0.9098   -6.1874    0.0000 O   0  0  0  0  0  0  0  0  0  0  0  0
  8 13  2  0  0  0  0
  9 14  1  0  0  0  0
 10 15  1  0  0  0  0
 11 16  1  0  0  0  0
 15 17  1  1  0  0  0
 16 18  1  6  0  0  0
 17 19  1  0  0  0  0
  6  7  2  0  0  0  0
  9 12  1  0  0  0  0
 15 16  1  0  0  0  0
 19 20  1  0  0  0  0
  1  2  1  0  0  0  0
 20 21  1  0  0  0  0
  1  3  2  0  0  0  0
 21 22  1  0  0  0  0
  1  4  1  0  0  0  0
 22 23  1  0  0  0  0
  5  2  1  1  0  0  0
 23 24  1  0  0  0  0
  2  6  1  0  0  0  0
 24 25  1  0  0  0  0
  3  7  1  0  0  0  0
 20 26  2  0  0  0  0
  3  8  1  0  0  0  0
 20 27  1  0  0  0  0
  4  9  2  0  0  0  0
 22 28  2  0  0  0  0
  5 10  1  0  0  0  0
 22 29  1  0  0  0  0
  5 11  1  0  0  0  0
 24 30  2  0  0  0  0
  8 12  1  0  0  0  0
 24 31  1  0  0  0  0
M  END

$$$$
Deoxythymidine monophosphate
  Marvin  10040517042D

 21 22  0  0  0  0            999 V2000
    7.2274  -11.1728    0.0000 C   0  0  2  0  0  0  0  0  0  0  0  0
    7.2101   -9.0811    0.0000 N   0  0  0  0  0  0  0  0  0  0  0  0
    6.5542  -10.6965    0.0000 O   0  0  0  0  0  0  0  0  0  0  0  0
    6.9720  -11.9632    0.0000 C   0  0  0  0  0  0  0  0  0  0  0  0
    6.4956   -8.6702    0.0000 C   0  0  0  0  0  0  0  0  0  0  0  0
    7.9351   -8.6702    0.0000 C   0  0  0  0  0  0  0  0  0  0  0  0
    5.8882  -11.1900    0.0000 C   0  0  1  0  0  0  0  0  0  0  0  0
    6.1505  -11.9563    0.0000 C   0  0  1  0  0  0  0  0  0  0  0  0
    6.4956   -7.8420    0.0000 N   0  0  0  0  0  0  0  0  0  0  0  0
    5.7708   -9.1018    0.0000 O   0  0  0  0  0  0  0  0  0  0  0  0
    7.9453   -7.8489    0.0000 C   0  0  0  0  0  0  0  0  0  0  0  0
    5.0942  -10.9657    0.0000 C   0  0  0  0  0  0  0  0  0  0  0  0
    5.6397  -12.6329    0.0000 O   0  0  0  0  0  0  0  0  0  0  0  0
    7.2101   -7.4312    0.0000 C   0  0  0  0  0  0  0  0  0  0  0  0
    8.6909   -7.4484    0.0000 C   0  0  0  0  0  0  0  0  0  0  0  0
    4.8907  -10.1614    0.0000 O   0  0  0  0  0  0  0  0  0  0  0  0
    7.1998   -6.6062    0.0000 O   0  0  0  0  0  0  0  0  0  0  0  0
    4.1106   -9.9510    0.0000 P   0  0  0  0  0  0  0  0  0  0  0  0
    3.8896  -10.7448    0.0000 O   0  0  0  0  0  0  0  0  0  0  0  0
    4.3315   -9.1536    0.0000 O   0  0  0  0  0  0  0  0  0  0  0  0
    3.3132   -9.7300    0.0000 O   0  0  0  0  0  0  0  0  0  0  0  0
  1  2  1  1  0  0  0
  1  3  1  0  0  0  0
  1  4  1  0  0  0  0
  2  5  1  0  0  0  0
  2  6  1  0  0  0  0
  3  7  1  0  0  0  0
  4  8  1  0  0  0  0
  5  9  1  0  0  0  0
  5 10  2  0  0  0  0
  6 11  2  0  0  0  0
  7 12  1  1  0  0  0
  8 13  1  6  0  0  0
  9 14  1  0  0  0  0
 11 15  1  0  0  0  0
 12 16  1  0  0  0  0
 14 17  2  0  0  0  0
 16 18  1  0  0  0  0
 18 19  1  0  0  0  0
 18 20  1  0  0  0  0
 18 21  2  0  0  0  0
  7  8  1  0  0  0  0
 11 14  1  0  0  0  0
M  END

$$$$
Deoxythymidine diphosphate
  Marvin  10040517052D

 25 26  0  0  0  0            999 V2000
    1.9458  -17.0125    0.0000 N   0  0  0  0  0  0  0  0  0  0  0  0
    1.2333  -16.6042    0.0000 C   0  0  0  0  0  0  0  0  0  0  0  0
    0.5250  -17.0125    0.0000 N   0  0  0  0  0  0  0  0  0  0  0  0
    2.6625  -16.5958    0.0000 C   0  0  2  0  0  0  0  0  0  0  0  0
    1.9458  -17.8375    0.0000 C   0  0  0  0  0  0  0  0  0  0  0  0
    1.2333  -18.2542    0.0000 C   0  0  0  0  0  0  0  0  0  0  0  0
    0.5250  -17.8375    0.0000 C   0  0  0  0  0  0  0  0  0  0  0  0
    4.7208  -14.4833    0.0000 P   0  0  0  0  0  0  0  0  0  0  0  0
    3.3292  -17.0792    0.0000 O   0  0  0  0  0  0  0  0  0  0  0  0
    2.9167  -15.8125    0.0000 C   0  0  0  0  0  0  0  0  0  0  0  0
    6.2458  -16.5500    0.0000 P   0  0  0  0  0  0  0  0  0  0  0  0
    3.7417  -15.8125    0.0000 C   0  0  1  0  0  0  0  0  0  0  0  0
    3.9958  -16.5958    0.0000 C   0  0  1  0  0  0  0  0  0  0  0  0
    4.2250  -15.1417    0.0000 O   0  0  0  0  0  0  0  0  0  0  0  0
    4.7250  -16.9792    0.0000 C   0  0  0  0  0  0  0  0  0  0  0  0
    1.2333  -15.7792    0.0000 O   0  0  0  0  0  0  0  0  0  0  0  0
    5.4208  -16.5375    0.0000 O   0  0  0  0  0  0  0  0  0  0  0  0
    5.3833  -14.9792    0.0000 O   0  0  0  0  0  0  0  0  0  0  0  0
    6.2333  -17.3750    0.0000 O   0  0  0  0  0  0  0  0  0  0  0  0
   -0.1917  -18.2458    0.0000 O   0  0  0  0  0  0  0  0  0  0  0  0
    5.2167  -13.8208    0.0000 O   0  0  0  0  0  0  0  0  0  0  0  0
    4.0583  -13.9875    0.0000 O   0  0  0  0  0  0  0  0  0  0  0  0
    6.2542  -15.7208    0.0000 O   0  0  0  0  0  0  0  0  0  0  0  0
    7.0708  -16.5583    0.0000 O   0  0  0  0  0  0  0  0  0  0  0  0
    1.2333  -19.0792    0.0000 C   0  0  0  0  0  0  0  0  0  0  0  0
  2  1  1  0  0  0  0
  3  2  1  0  0  0  0
  4  1  1  1  0  0  0
  5  1  1  0  0  0  0
  6  5  2  0  0  0  0
  7  6  1  0  0  0  0
  8 14  1  0  0  0  0
  9  4  1  0  0  0  0
 10  4  1  0  0  0  0
 11 17  1  0  0  0  0
 12 10  1  0  0  0  0
 13  9  1  0  0  0  0
 12 14  1  6  0  0  0
 13 15  1  1  0  0  0
 16  2  2  0  0  0  0
 17 15  1  0  0  0  0
 18  8  2  0  0  0  0
 19 11  2  0  0  0  0
 20  7  2  0  0  0  0
 21  8  1  0  0  0  0
 22  8  1  0  0  0  0
 23 11  1  0  0  0  0
 24 11  1  0  0  0  0
 25  6  1  0  0  0  0
 13 12  1  0  0  0  0
  3  7  1  0  0  0  0
M  END

$$$$
Deoxythymidine triphosphate
  Marvin  10040517062D

 29 30  0  0  0  0            999 V2000
    1.7769   -4.2173    0.0000 P   0  0  3  0  0  0  0  0  0  0  0  0
    0.8630   -4.2173    0.0000 O   0  0  0  0  0  0  0  0  0  0  0  0
    1.7769   -3.3034    0.0000 O   0  0  0  0  0  0  0  0  0  0  0  0
    1.7723   -5.1313    0.0000 O   0  0  0  0  0  0  0  0  0  0  0  0
   -0.0510   -4.2127    0.0000 P   0  0  3  0  0  0  0  0  0  0  0  0
   -0.9651   -4.2173    0.0000 O   0  0  0  0  0  0  0  0  0  0  0  0
   -1.8790   -4.2173    0.0000 P   0  0  0  0  0  0  0  0  0  0  0  0
   -2.7930   -4.2173    0.0000 O   0  0  0  0  0  0  0  0  0  0  0  0
   -0.0557   -3.2987    0.0000 O   0  0  0  0  0  0  0  0  0  0  0  0
   -0.0464   -5.1267    0.0000 O   0  0  0  0  0  0  0  0  0  0  0  0
   -1.8837   -3.3034    0.0000 O   0  0  0  0  0  0  0  0  0  0  0  0
   -1.8790   -5.1313    0.0000 O   0  0  0  0  0  0  0  0  0  0  0  0
    2.7466   -4.2266    0.0000 O   0  0  0  0  0  0  0  0  0  0  0  0
    5.7165   -4.5066    0.0000 C   0  0  2  0  0  0  0  0  0  0  0  0
    5.7165   -2.6905    0.0000 N   0  0  0  0  0  0  0  0  0  0  0  0
    4.8104   -3.9538    0.0000 O   0  0  0  0  0  0  0  0  0  0  0  0
    5.3442   -5.2592    0.0000 C   0  0  0  0  0  0  0  0  0  0  0  0
    5.1215   -2.3334    0.0000 C   0  0  0  0  0  0  0  0  0  0  0  0
    6.3194   -2.3334    0.0000 C   0  0  0  0  0  0  0  0  0  0  0  0
    3.8851   -4.5066    0.0000 C   0  0  1  0  0  0  0  0  0  0  0  0
    4.2230   -5.2592    0.0000 C   0  0  1  0  0  0  0  0  0  0  0  0
    5.1215   -1.6307    0.0000 N   0  0  0  0  0  0  0  0  0  0  0  0
    4.3874   -2.7554    0.0000 O   0  0  0  0  0  0  0  0  0  0  0  0
    6.3194   -1.6307    0.0000 C   0  0  0  0  0  0  0  0  0  0  0  0
    3.4714   -3.8932    0.0000 C   0  0  0  0  0  0  0  0  0  0  0  0
    3.8352   -6.0233    0.0000 O   0  0  0  0  0  0  0  0  0  0  0  0
    5.7165   -1.2737    0.0000 C   0  0  0  0  0  0  0  0  0  0  0  0
    7.0033   -1.3353    0.0000 C   0  0  0  0  0  0  0  0  0  0  0  0
    5.7128   -0.5710    0.0000 O   0  0  0  0  0  0  0  0  0  0  0  0
  2  5  1  0  0  0  0
  5  6  1  0  0  0  0
  6  7  1  0  0  0  0
  7  8  1  0  0  0  0
  5  9  2  0  0  0  0
  5 10  1  0  0  0  0
  7 11  2  0  0  0  0
  7 12  1  0  0  0  0
  1 13  1  0  0  0  0
  1  2  1  0  0  0  0
  1  3  2  0  0  0  0
  1  4  1  0  0  0  0
 14 15  1  1  0  0  0
 14 16  1  0  0  0  0
 14 17  1  0  0  0  0
 15 18  1  0  0  0  0
 15 19  1  0  0  0  0
 16 20  1  0  0  0  0
 17 21  1  0  0  0  0
 18 22  1  0  0  0  0
 18 23  2  0  0  0  0
 19 24  2  0  0  0  0
 20 25  1  1  0  0  0
 21 26  1  6  0  0  0
 22 27  1  0  0  0  0
 24 28  1  0  0  0  0
 25 13  1  0  0  0  0
 27 29  2  0  0  0  0
 20 21  1  0  0  0  0
 24 27  1  0  0  0  0
M  END

$$$$
Deoxyuridine monophosphate
  Marvin  10040517062D

 20 21  0  0  0  0            999 V2000
    8.6028   -6.0030    0.0000 C   0  0  2  0  0  0  0  0  0  0  0  0
    8.6402   -4.3075    0.0000 N   0  0  0  0  0  0  0  0  0  0  0  0
    7.6281   -5.4614    0.0000 O   0  0  0  0  0  0  0  0  0  0  0  0
    8.2256   -6.7424    0.0000 C   0  0  0  0  0  0  0  0  0  0  0  0
    7.9604   -3.9153    0.0000 C   0  0  0  0  0  0  0  0  0  0  0  0
    9.3161   -3.9190    0.0000 C   0  0  0  0  0  0  0  0  0  0  0  0
    6.6533   -6.0030    0.0000 C   0  0  1  0  0  0  0  0  0  0  0  0
    7.0193   -6.7424    0.0000 C   0  0  1  0  0  0  0  0  0  0  0  0
    7.9604   -3.1347    0.0000 N   0  0  0  0  0  0  0  0  0  0  0  0
    7.2882   -4.3075    0.0000 O   0  0  0  0  0  0  0  0  0  0  0  0
    9.3124   -3.1310    0.0000 C   0  0  0  0  0  0  0  0  0  0  0  0
    6.0782   -5.5136    0.0000 C   0  0  0  0  0  0  0  0  0  0  0  0
    6.7542   -7.3772    0.0000 O   0  0  0  0  0  0  0  0  0  0  0  0
    8.6402   -2.7426    0.0000 C   0  0  0  0  0  0  0  0  0  0  0  0
    5.2492   -5.8648    0.0000 O   0  0  0  0  0  0  0  0  0  0  0  0
    8.6364   -1.9658    0.0000 O   0  0  0  0  0  0  0  0  0  0  0  0
    4.4611   -5.4091    0.0000 P   0  0  0  0  0  0  0  0  0  0  0  0
    3.6731   -5.8648    0.0000 O   0  0  0  0  0  0  0  0  0  0  0  0
    4.4574   -6.3204    0.0000 O   0  0  0  0  0  0  0  0  0  0  0  0
    4.4574   -4.5017    0.0000 O   0  0  0  0  0  0  0  0  0  0  0  0
  1  2  1  1  0  0  0
  1  3  1  0  0  0  0
  1  4  1  0  0  0  0
  2  5  1  0  0  0  0
  2  6  1  0  0  0  0
  3  7  1  0  0  0  0
  4  8  1  0  0  0  0
  5  9  1  0  0  0  0
  5 10  2  0  0  0  0
  6 11  2  0  0  0  0
  7 12  1  1  0  0  0
  8 13  1  6  0  0  0
  9 14  1  0  0  0  0
 12 15  1  0  0  0  0
 14 16  2  0  0  0  0
 15 17  1  0  0  0  0
 17 18  1  0  0  0  0
 17 19  1  0  0  0  0
 17 20  2  0  0  0  0
  7  8  1  0  0  0  0
 11 14  1  0  0  0  0
M  END

$$$$
Deoxyuridine triphosphate
  Marvin  10040517092D

 28 29  0  0  0  0            999 V2000
    2.5027   -3.6758    0.0000 P   0  0  0  0  0  0  0  0  0  0  0  0
    2.5222   -2.7138    0.0000 O   0  0  0  0  0  0  0  0  0  0  0  0
   10.3581   -3.8256    0.0000 C   0  0  2  0  0  0  0  0  0  0  0  0
   10.3937   -2.1397    0.0000 N   0  0  0  0  0  0  0  0  0  0  0  0
    9.3938   -3.2852    0.0000 O   0  0  0  0  0  0  0  0  0  0  0  0
    9.9828   -4.5603    0.0000 C   0  0  0  0  0  0  0  0  0  0  0  0
    9.7238   -1.7513    0.0000 C   0  0  0  0  0  0  0  0  0  0  0  0
   11.0668   -1.7545    0.0000 C   0  0  0  0  0  0  0  0  0  0  0  0
    8.4229   -3.8256    0.0000 C   0  0  1  0  0  0  0  0  0  0  0  0
    8.7853   -4.5603    0.0000 C   0  0  1  0  0  0  0  0  0  0  0  0
    9.7238   -0.9746    0.0000 N   0  0  0  0  0  0  0  0  0  0  0  0
    9.0539   -2.1397    0.0000 O   0  0  0  0  0  0  0  0  0  0  0  0
   11.0636   -0.9713    0.0000 C   0  0  0  0  0  0  0  0  0  0  0  0
    7.8501   -3.3370    0.0000 C   0  0  0  0  0  0  0  0  0  0  0  0
    8.5199   -5.1880    0.0000 O   0  0  0  0  0  0  0  0  0  0  0  0
   10.3937   -0.5895    0.0000 C   0  0  0  0  0  0  0  0  0  0  0  0
    7.0248   -3.6865    0.0000 O   0  0  0  0  0  0  0  0  0  0  0  0
   10.3905    0.1839    0.0000 O   0  0  0  0  0  0  0  0  0  0  0  0
    6.1236   -3.6836    0.0000 P   0  0  3  0  0  0  0  0  0  0  0  0
    6.1197   -2.7803    0.0000 O   0  0  0  0  0  0  0  0  0  0  0  0
    6.1197   -4.5868    0.0000 O   0  0  0  0  0  0  0  0  0  0  0  0
    5.2164   -3.6836    0.0000 O   0  0  0  0  0  0  0  0  0  0  0  0
    4.3092   -3.6796    0.0000 P   0  0  3  0  0  0  0  0  0  0  0  0
    3.3981   -3.6796    0.0000 O   0  0  0  0  0  0  0  0  0  0  0  0
    4.3112   -2.7685    0.0000 O   0  0  0  0  0  0  0  0  0  0  0  0
    4.3053   -4.5908    0.0000 O   0  0  0  0  0  0  0  0  0  0  0  0
    2.4830   -4.5868    0.0000 O   0  0  0  0  0  0  0  0  0  0  0  0
    1.5720   -3.6718    0.0000 O   0  0  0  0  0  0  0  0  0  0  0  0
  7 12  2  0  0  0  0
  8 13  2  0  0  0  0
  9 14  1  1  0  0  0
 10 15  1  6  0  0  0
 11 16  1  0  0  0  0
 14 17  1  0  0  0  0
 16 18  2  0  0  0  0
  9 10  1  0  0  0  0
 13 16  1  0  0  0  0
 17 19  1  0  0  0  0
  1  2  2  0  0  0  0
 19 20  2  0  0  0  0
  3  4  1  1  0  0  0
 19 21  1  0  0  0  0
  3  5  1  0  0  0  0
 19 22  1  0  0  0  0
  3  6  1  0  0  0  0
 22 23  1  0  0  0  0
  4  7  1  0  0  0  0
 23 24  1  0  0  0  0
 24  1  1  0  0  0  0
  4  8  1  0  0  0  0
 23 25  2  0  0  0  0
  5  9  1  0  0  0  0
 23 26  1  0  0  0  0
  6 10  1  0  0  0  0
  1 27  1  0  0  0  0
  7 11  1  0  0  0  0
  1 28  1  0  0  0  0
M  END

$$$$
Deoxycytidine monophosphate
  Marvin  10040517102D

 20 21  0  0  0  0            999 V2000
    2.0934   -2.8127    0.0000 N   0  0  0  0  0  0  0  0  0  0  0  0
    2.0651   -2.0284    0.0000 C   0  0  0  0  0  0  0  0  0  0  0  0
    2.7813   -3.1794    0.0000 C   0  0  0  0  0  0  0  0  0  0  0  0
    2.7267   -1.6141    0.0000 N   0  0  0  0  0  0  0  0  0  0  0  0
    1.3760   -1.6668    0.0000 O   0  0  0  0  0  0  0  0  0  0  0  0
    3.4473   -2.7581    0.0000 C   0  0  0  0  0  0  0  0  0  0  0  0
    3.4198   -1.9822    0.0000 C   0  0  0  0  0  0  0  0  0  0  0  0
    4.0761   -1.5668    0.0000 N   0  0  0  0  0  0  0  0  0  0  0  0
    1.4634   -3.4518    0.0000 C   0  0  2  0  0  0  0  0  0  0  0  0
    0.4886   -2.9103    0.0000 O   0  0  0  0  0  0  0  0  0  0  0  0
    1.0862   -4.1911    0.0000 C   0  0  0  0  0  0  0  0  0  0  0  0
   -0.4860   -3.4518    0.0000 C   0  0  1  0  0  0  0  0  0  0  0  0
   -0.1201   -4.1911    0.0000 C   0  0  1  0  0  0  0  0  0  0  0  0
   -1.0613   -2.9624    0.0000 C   0  0  0  0  0  0  0  0  0  0  0  0
   -0.3852   -4.8261    0.0000 O   0  0  0  0  0  0  0  0  0  0  0  0
   -1.8904   -3.3135    0.0000 O   0  0  0  0  0  0  0  0  0  0  0  0
   -2.6784   -2.8580    0.0000 P   0  0  0  0  0  0  0  0  0  0  0  0
   -3.4662   -3.3135    0.0000 O   0  0  0  0  0  0  0  0  0  0  0  0
   -2.6820   -3.7692    0.0000 O   0  0  0  0  0  0  0  0  0  0  0  0
   -2.6820   -1.9504    0.0000 O   0  0  0  0  0  0  0  0  0  0  0  0
  2  4  1  0  0  0  0
  2  5  2  0  0  0  0
  3  6  2  0  0  0  0
  4  7  2  0  0  0  0
  7  8  1  0  0  0  0
  6  7  1  0  0  0  0
  1  2  1  0  0  0  0
  1  3  1  0  0  0  0
  9 10  1  0  0  0  0
  9 11  1  0  0  0  0
 10 12  1  0  0  0  0
 11 13  1  0  0  0  0
 12 14  1  1  0  0  0
 13 15  1  6  0  0  0
 14 16  1  0  0  0  0
 16 17  1  0  0  0  0
 17 18  1  0  0  0  0
 17 19  1  0  0  0  0
 17 20  2  0  0  0  0
 12 13  1  0  0  0  0
  9  1  1  1  0  0  0
M  END

$$$$
Deoxycytidine diphosphate
  Marvin  10040517112D

 24 25  0  0  0  0            999 V2000
    2.1930   -6.1473    0.0000 C   0  0  0  0  0  0  0  0  0  0  0  0
    3.0134   -6.0610    0.0000 C   0  0  2  0  0  0  0  0  0  0  0  0
    3.4259   -5.3466    0.0000 C   0  0  1  0  0  0  0  0  0  0  0  0
    3.0904   -4.5929    0.0000 O   0  0  0  0  0  0  0  0  0  0  0  0
    4.2329   -5.5181    0.0000 C   0  0  0  0  0  0  0  0  0  0  0  0
    4.3192   -6.3386    0.0000 C   0  0  1  0  0  0  0  0  0  0  0  0
    3.5655   -6.6742    0.0000 O   0  0  0  0  0  0  0  0  0  0  0  0
    5.0337   -6.7511    0.0000 N   0  0  0  0  0  0  0  0  0  0  0  0
    5.7481   -6.3386    0.0000 C   0  0  0  0  0  0  0  0  0  0  0  0
    5.7481   -5.5136    0.0000 O   0  0  0  0  0  0  0  0  0  0  0  0
    6.4627   -6.7511    0.0000 N   0  0  0  0  0  0  0  0  0  0  0  0
    6.4627   -7.5761    0.0000 C   0  0  0  0  0  0  0  0  0  0  0  0
    7.1771   -7.9886    0.0000 N   0  0  0  0  0  0  0  0  0  0  0  0
    5.7481   -7.9886    0.0000 C   0  0  0  0  0  0  0  0  0  0  0  0
    5.0337   -7.5761    0.0000 C   0  0  0  0  0  0  0  0  0  0  0  0
    0.8875   -5.5661    0.0000 P   0  0  3  0  0  0  0  0  0  0  0  0
    0.0670   -5.6523    0.0000 O   0  0  0  0  0  0  0  0  0  0  0  0
    1.7080   -5.4798    0.0000 O   0  0  0  0  0  0  0  0  0  0  0  0
    0.8013   -4.7456    0.0000 O   0  0  0  0  0  0  0  0  0  0  0  0
    0.9737   -6.3866    0.0000 O   0  0  0  0  0  0  0  0  0  0  0  0
    0.3063   -6.8715    0.0000 P   0  0  0  0  0  0  0  0  0  0  0  0
    0.7912   -7.5389    0.0000 O   0  0  0  0  0  0  0  0  0  0  0  0
   -0.3612   -7.3565    0.0000 O   0  0  0  0  0  0  0  0  0  0  0  0
   -0.1787   -6.2041    0.0000 O   0  0  0  0  0  0  0  0  0  0  0  0
  2  1  1  6  0  0  0
  2  3  1  0  0  0  0
  3  4  1  1  0  0  0
  3  5  1  0  0  0  0
  5  6  1  0  0  0  0
  6  7  1  6  0  0  0
  2  7  1  0  0  0  0
  6  8  1  0  0  0  0
  8  9  1  0  0  0  0
  9 10  2  0  0  0  0
  9 11  1  0  0  0  0
 11 12  2  0  0  0  0
 12 13  1  0  0  0  0
 12 14  1  0  0  0  0
 14 15  2  0  0  0  0
  8 15  1  0  0  0  0
 16 17  2  0  0  0  0
 16 18  1  0  0  0  0
 16 19  1  0  0  0  0
 16 20  1  0  0  0  0
 20 21  1  0  0  0  0
 21 22  2  0  0  0  0
 21 23  1  0  0  0  0
 21 24  1  0  0  0  0
  1 18  1  0  0  0  0
M  END

$$$$
Deoxycytidine triphosphate
  Marvin  10040517132D

 28 29  0  0  0  0            999 V2000
    1.3958   -3.0918    0.0000 O   0  0  0  0  0  0  0  0  0  0  0  0
    1.8018   -2.3791    0.0000 P   0  0  0  0  0  0  0  0  0  0  0  0
    2.4682   -2.6324    0.0000 O   0  0  0  0  0  0  0  0  0  0  0  0
    1.0038   -2.1753    0.0000 O   0  0  0  0  0  0  0  0  0  0  0  0
    2.0044   -1.5837    0.0000 O   0  0  0  0  0  0  0  0  0  0  0  0
    2.7415   -3.5586    0.0000 O   0  0  0  0  0  0  0  0  0  0  0  0
    1.9348   -3.7132    0.0000 P   0  0  3  0  0  0  0  0  0  0  0  0
    1.9615   -4.5583    0.0000 O   0  0  0  0  0  0  0  0  0  0  0  0
    1.1998   -4.0739    0.0000 O   0  0  0  0  0  0  0  0  0  0  0  0
    4.1194   -3.9296    0.0000 O   0  0  0  0  0  0  0  0  0  0  0  0
    4.7354   -4.4743    0.0000 C   0  0  0  0  0  0  0  0  0  0  0  0
    5.5198   -4.2099    0.0000 C   0  0  2  0  0  0  0  0  0  0  0  0
    5.7643   -3.4203    0.0000 C   0  0  0  0  0  0  0  0  0  0  0  0
    6.5892   -3.4096    0.0000 C   0  0  1  0  0  0  0  0  0  0  0  0
    7.0652   -2.7381    0.0000 O   0  0  0  0  0  0  0  0  0  0  0  0
    6.8537   -4.1940    0.0000 C   0  0  1  0  0  0  0  0  0  0  0  0
    6.1914   -4.6859    0.0000 O   0  0  0  0  0  0  0  0  0  0  0  0
    7.6433   -4.4386    0.0000 N   0  0  0  0  0  0  0  0  0  0  0  0
    8.2476   -3.8801    0.0000 C   0  0  0  0  0  0  0  0  0  0  0  0
    8.0666   -3.0729    0.0000 O   0  0  0  0  0  0  0  0  0  0  0  0
    9.0371   -4.1246    0.0000 N   0  0  0  0  0  0  0  0  0  0  0  0
    9.2182   -4.9276    0.0000 C   0  0  0  0  0  0  0  0  0  0  0  0
   10.0035   -5.1762    0.0000 N   0  0  0  0  0  0  0  0  0  0  0  0
    8.6097   -5.4860    0.0000 C   0  0  0  0  0  0  0  0  0  0  0  0
    7.8242   -5.2416    0.0000 C   0  0  0  0  0  0  0  0  0  0  0  0
    3.3246   -4.1372    0.0000 P   0  0  3  0  0  0  0  0  0  0  0  0
    3.7371   -4.8508    0.0000 O   0  0  0  0  0  0  0  0  0  0  0  0
    2.7430   -4.6693    0.0000 O   0  0  0  0  0  0  0  0  0  0  0  0
  2  3  1  0  0  0  0
  1  2  1  0  0  0  0
  6  7  1  0  0  0  0
  7  1  1  0  0  0  0
  2  4  1  0  0  0  0
  7  8  1  0  0  0  0
 10 11  1  0  0  0  0
 12 11  1  6  0  0  0
 12 13  1  0  0  0  0
 13 14  1  0  0  0  0
 14 15  1  1  0  0  0
 14 16  1  0  0  0  0
 16 17  1  0  0  0  0
 12 17  1  0  0  0  0
 16 18  1  6  0  0  0
 18 19  1  0  0  0  0
 19 20  2  0  0  0  0
 19 21  1  0  0  0  0
 21 22  2  0  0  0  0
 22 23  1  0  0  0  0
 22 24  1  0  0  0  0
 24 25  2  0  0  0  0
 18 25  1  0  0  0  0
 10 26  1  0  0  0  0
 26  6  1  0  0  0  0
  7  9  2  0  0  0  0
 26 27  1  0  0  0  0
  2  5  2  0  0  0  0
 26 28  2  0  0  0  0
M  END

$$$$